<?xml version="1.0" encoding="UTF-8"?>

<configuration>

    <input>
        <net-file value="cross2Spec1.net.xml"/>
        <route-files value="randomSpec1.rou.xml"/>
    </input>

    <time>
        <begin value="0"/>
    </time>
    
    
    <report>
        <verbose value="true"/>
        <no-step-log value="true"/>
    </report>
    <time-to-teleport value="-1"/>
</configuration>
