<routes>
        <vType id="2" length="4.00" minGap="2.50" maxSpeed="14.00" guiShape="passenger" accel="2" decel="4.5" sigma="0.5" />
        <vType id="1" length="3.00" minGap="2.50" maxSpeed="14.00" guiShape="passenger" accel="2" decel="4.5" sigma="0.5" />
        <vType id="0" length="5.00" minGap="2.50" maxSpeed="14.00" guiShape="passenger" accel="2" decel="4.5" sigma="0.5" />
        
    <vehicle id="right_0" type="2" depart="32" > <route edges="west_right east_right"/> </vehicle>
    <vehicle id="left_1" type="1" depart="32"> <route edges="east_left west_left"/>  </vehicle>
    <vehicle id="down_2" type="0" depart="32">  <route edges="north_down south_down"/> </vehicle>
    <vehicle id="right_3" type="2" depart="65" > <route edges="west_right east_right"/> </vehicle>
    <vehicle id="left_4" type="1" depart="65"> <route edges="east_left west_left"/>  </vehicle>
    <vehicle id="right_5" type="2" depart="98" > <route edges="west_right east_right"/> </vehicle>
    <vehicle id="left_6" type="1" depart="98"> <route edges="east_left west_left"/>  </vehicle>
    <vehicle id="right_7" type="2" depart="131" > <route edges="west_right east_right"/> </vehicle>
    <vehicle id="left_8" type="1" depart="131"> <route edges="east_left west_left"/>  </vehicle>
    <vehicle id="right_9" type="2" depart="164" > <route edges="west_right east_right"/> </vehicle>
    <vehicle id="right_10" type="2" depart="416" > <route edges="west_right east_right"/> </vehicle>
    <vehicle id="left_11" type="1" depart="416"> <route edges="east_left west_left"/>  </vehicle>
    <vehicle id="down_12" type="0" depart="416">  <route edges="north_down south_down"/> </vehicle>
    <vehicle id="right_13" type="2" depart="433" > <route edges="west_right east_right"/> </vehicle>
    <vehicle id="left_14" type="1" depart="433"> <route edges="east_left west_left"/>  </vehicle>
    <vehicle id="down_15" type="0" depart="433">  <route edges="north_down south_down"/> </vehicle>
    <vehicle id="right_16" type="2" depart="450" > <route edges="west_right east_right"/> </vehicle>
    <vehicle id="left_17" type="1" depart="450"> <route edges="east_left west_left"/>  </vehicle>
    <vehicle id="down_18" type="0" depart="450">  <route edges="north_down south_down"/> </vehicle>
    <vehicle id="right_19" type="2" depart="467" > <route edges="west_right east_right"/> </vehicle>
    <vehicle id="left_20" type="1" depart="467"> <route edges="east_left west_left"/>  </vehicle>
    <vehicle id="down_21" type="0" depart="467">  <route edges="north_down south_down"/> </vehicle>
    <vehicle id="right_22" type="2" depart="484" > <route edges="west_right east_right"/> </vehicle>
    <vehicle id="left_23" type="1" depart="484"> <route edges="east_left west_left"/>  </vehicle>
    <vehicle id="right_24" type="2" depart="501" > <route edges="west_right east_right"/> </vehicle>
    <vehicle id="left_25" type="1" depart="501"> <route edges="east_left west_left"/>  </vehicle>
    <vehicle id="right_26" type="2" depart="518" > <route edges="west_right east_right"/> </vehicle>
    <vehicle id="left_27" type="1" depart="518"> <route edges="east_left west_left"/>  </vehicle>
    <vehicle id="right_28" type="2" depart="535" > <route edges="west_right east_right"/> </vehicle>
    <vehicle id="left_29" type="1" depart="535"> <route edges="east_left west_left"/>  </vehicle>
    <vehicle id="right_30" type="2" depart="552" > <route edges="west_right east_right"/> </vehicle>
    <vehicle id="left_31" type="1" depart="552"> <route edges="east_left west_left"/>  </vehicle>
    <vehicle id="right_32" type="2" depart="569" > <route edges="west_right east_right"/> </vehicle>
    <vehicle id="right_33" type="2" depart="810" > <route edges="west_right east_right"/> </vehicle>
    <vehicle id="left_34" type="1" depart="810"> <route edges="east_left west_left"/>  </vehicle>
    <vehicle id="down_35" type="0" depart="810">  <route edges="north_down south_down"/> </vehicle>
    <vehicle id="right_36" type="2" depart="821" > <route edges="west_right east_right"/> </vehicle>
    <vehicle id="left_37" type="1" depart="821"> <route edges="east_left west_left"/>  </vehicle>
    <vehicle id="down_38" type="0" depart="821">  <route edges="north_down south_down"/> </vehicle>
    <vehicle id="right_39" type="2" depart="832" > <route edges="west_right east_right"/> </vehicle>
    <vehicle id="left_40" type="1" depart="832"> <route edges="east_left west_left"/>  </vehicle>
    <vehicle id="down_41" type="0" depart="832">  <route edges="north_down south_down"/> </vehicle>
    <vehicle id="right_42" type="2" depart="843" > <route edges="west_right east_right"/> </vehicle>
    <vehicle id="left_43" type="1" depart="843"> <route edges="east_left west_left"/>  </vehicle>
    <vehicle id="down_44" type="0" depart="843">  <route edges="north_down south_down"/> </vehicle>
    <vehicle id="right_45" type="2" depart="854" > <route edges="west_right east_right"/> </vehicle>
    <vehicle id="left_46" type="1" depart="854"> <route edges="east_left west_left"/>  </vehicle>
    <vehicle id="down_47" type="0" depart="854">  <route edges="north_down south_down"/> </vehicle>
    <vehicle id="right_48" type="2" depart="865" > <route edges="west_right east_right"/> </vehicle>
    <vehicle id="left_49" type="1" depart="865"> <route edges="east_left west_left"/>  </vehicle>
    <vehicle id="down_50" type="0" depart="865">  <route edges="north_down south_down"/> </vehicle>
    <vehicle id="right_51" type="2" depart="876" > <route edges="west_right east_right"/> </vehicle>
    <vehicle id="left_52" type="1" depart="876"> <route edges="east_left west_left"/>  </vehicle>
    <vehicle id="right_53" type="2" depart="887" > <route edges="west_right east_right"/> </vehicle>
    <vehicle id="left_54" type="1" depart="887"> <route edges="east_left west_left"/>  </vehicle>
    <vehicle id="right_55" type="2" depart="898" > <route edges="west_right east_right"/> </vehicle>
    <vehicle id="left_56" type="1" depart="898"> <route edges="east_left west_left"/>  </vehicle>
    <vehicle id="right_57" type="2" depart="909" > <route edges="west_right east_right"/> </vehicle>
    <vehicle id="left_58" type="1" depart="909"> <route edges="east_left west_left"/>  </vehicle>
    <vehicle id="right_59" type="2" depart="920" > <route edges="west_right east_right"/> </vehicle>
    <vehicle id="left_60" type="1" depart="920"> <route edges="east_left west_left"/>  </vehicle>
    <vehicle id="right_61" type="2" depart="931" > <route edges="west_right east_right"/> </vehicle>
    <vehicle id="left_62" type="1" depart="931"> <route edges="east_left west_left"/>  </vehicle>
    <vehicle id="right_63" type="2" depart="942" > <route edges="west_right east_right"/> </vehicle>
    <vehicle id="left_64" type="1" depart="942"> <route edges="east_left west_left"/>  </vehicle>
    <vehicle id="right_65" type="2" depart="953" > <route edges="west_right east_right"/> </vehicle>
    <vehicle id="right_66" type="2" depart="1207" > <route edges="west_right east_right"/> </vehicle>
    <vehicle id="left_67" type="1" depart="1207"> <route edges="east_left west_left"/>  </vehicle>
    <vehicle id="down_68" type="0" depart="1207">  <route edges="north_down south_down"/> </vehicle>
    <vehicle id="right_69" type="2" depart="1215" > <route edges="west_right east_right"/> </vehicle>
    <vehicle id="left_70" type="1" depart="1215"> <route edges="east_left west_left"/>  </vehicle>
    <vehicle id="down_71" type="0" depart="1215">  <route edges="north_down south_down"/> </vehicle>
    <vehicle id="right_72" type="2" depart="1223" > <route edges="west_right east_right"/> </vehicle>
    <vehicle id="left_73" type="1" depart="1223"> <route edges="east_left west_left"/>  </vehicle>
    <vehicle id="down_74" type="0" depart="1223">  <route edges="north_down south_down"/> </vehicle>
    <vehicle id="right_75" type="2" depart="1231" > <route edges="west_right east_right"/> </vehicle>
    <vehicle id="left_76" type="1" depart="1231"> <route edges="east_left west_left"/>  </vehicle>
    <vehicle id="down_77" type="0" depart="1231">  <route edges="north_down south_down"/> </vehicle>
    <vehicle id="right_78" type="2" depart="1239" > <route edges="west_right east_right"/> </vehicle>
    <vehicle id="left_79" type="1" depart="1239"> <route edges="east_left west_left"/>  </vehicle>
    <vehicle id="down_80" type="0" depart="1239">  <route edges="north_down south_down"/> </vehicle>
    <vehicle id="right_81" type="2" depart="1247" > <route edges="west_right east_right"/> </vehicle>
    <vehicle id="left_82" type="1" depart="1247"> <route edges="east_left west_left"/>  </vehicle>
    <vehicle id="down_83" type="0" depart="1247">  <route edges="north_down south_down"/> </vehicle>
    <vehicle id="right_84" type="2" depart="1255" > <route edges="west_right east_right"/> </vehicle>
    <vehicle id="left_85" type="1" depart="1255"> <route edges="east_left west_left"/>  </vehicle>
    <vehicle id="down_86" type="0" depart="1255">  <route edges="north_down south_down"/> </vehicle>
    <vehicle id="right_87" type="2" depart="1263" > <route edges="west_right east_right"/> </vehicle>
    <vehicle id="left_88" type="1" depart="1263"> <route edges="east_left west_left"/>  </vehicle>
    <vehicle id="down_89" type="0" depart="1263">  <route edges="north_down south_down"/> </vehicle>
    <vehicle id="right_90" type="2" depart="1271" > <route edges="west_right east_right"/> </vehicle>
    <vehicle id="left_91" type="1" depart="1271"> <route edges="east_left west_left"/>  </vehicle>
    <vehicle id="down_92" type="0" depart="1271">  <route edges="north_down south_down"/> </vehicle>
    <vehicle id="right_93" type="2" depart="1279" > <route edges="west_right east_right"/> </vehicle>
    <vehicle id="left_94" type="1" depart="1279"> <route edges="east_left west_left"/>  </vehicle>
    <vehicle id="right_95" type="2" depart="1287" > <route edges="west_right east_right"/> </vehicle>
    <vehicle id="left_96" type="1" depart="1287"> <route edges="east_left west_left"/>  </vehicle>
    <vehicle id="right_97" type="2" depart="1295" > <route edges="west_right east_right"/> </vehicle>
    <vehicle id="left_98" type="1" depart="1295"> <route edges="east_left west_left"/>  </vehicle>
    <vehicle id="right_99" type="2" depart="1303" > <route edges="west_right east_right"/> </vehicle>
    <vehicle id="left_100" type="1" depart="1303"> <route edges="east_left west_left"/>  </vehicle>
    <vehicle id="right_101" type="2" depart="1311" > <route edges="west_right east_right"/> </vehicle>
    <vehicle id="left_102" type="1" depart="1311"> <route edges="east_left west_left"/>  </vehicle>
    <vehicle id="right_103" type="2" depart="1319" > <route edges="west_right east_right"/> </vehicle>
    <vehicle id="left_104" type="1" depart="1319"> <route edges="east_left west_left"/>  </vehicle>
    <vehicle id="right_105" type="2" depart="1327" > <route edges="west_right east_right"/> </vehicle>
    <vehicle id="left_106" type="1" depart="1327"> <route edges="east_left west_left"/>  </vehicle>
    <vehicle id="right_107" type="2" depart="1335" > <route edges="west_right east_right"/> </vehicle>
    <vehicle id="left_108" type="1" depart="1335"> <route edges="east_left west_left"/>  </vehicle>
    <vehicle id="right_109" type="2" depart="1343" > <route edges="west_right east_right"/> </vehicle>
    <vehicle id="left_110" type="1" depart="1343"> <route edges="east_left west_left"/>  </vehicle>
    <vehicle id="right_111" type="2" depart="1351" > <route edges="west_right east_right"/> </vehicle>
    <vehicle id="right_112" type="2" depart="1606" > <route edges="west_right east_right"/> </vehicle>
    <vehicle id="left_113" type="1" depart="1606"> <route edges="east_left west_left"/>  </vehicle>
    <vehicle id="down_114" type="0" depart="1606">  <route edges="north_down south_down"/> </vehicle>
    <vehicle id="right_115" type="2" depart="1613" > <route edges="west_right east_right"/> </vehicle>
    <vehicle id="left_116" type="1" depart="1613"> <route edges="east_left west_left"/>  </vehicle>
    <vehicle id="down_117" type="0" depart="1613">  <route edges="north_down south_down"/> </vehicle>
    <vehicle id="right_118" type="2" depart="1620" > <route edges="west_right east_right"/> </vehicle>
    <vehicle id="left_119" type="1" depart="1620"> <route edges="east_left west_left"/>  </vehicle>
    <vehicle id="down_120" type="0" depart="1620">  <route edges="north_down south_down"/> </vehicle>
    <vehicle id="right_121" type="2" depart="1627" > <route edges="west_right east_right"/> </vehicle>
    <vehicle id="left_122" type="1" depart="1627"> <route edges="east_left west_left"/>  </vehicle>
    <vehicle id="down_123" type="0" depart="1627">  <route edges="north_down south_down"/> </vehicle>
    <vehicle id="right_124" type="2" depart="1634" > <route edges="west_right east_right"/> </vehicle>
    <vehicle id="left_125" type="1" depart="1634"> <route edges="east_left west_left"/>  </vehicle>
    <vehicle id="down_126" type="0" depart="1634">  <route edges="north_down south_down"/> </vehicle>
    <vehicle id="right_127" type="2" depart="1641" > <route edges="west_right east_right"/> </vehicle>
    <vehicle id="left_128" type="1" depart="1641"> <route edges="east_left west_left"/>  </vehicle>
    <vehicle id="down_129" type="0" depart="1641">  <route edges="north_down south_down"/> </vehicle>
    <vehicle id="right_130" type="2" depart="1648" > <route edges="west_right east_right"/> </vehicle>
    <vehicle id="left_131" type="1" depart="1648"> <route edges="east_left west_left"/>  </vehicle>
    <vehicle id="down_132" type="0" depart="1648">  <route edges="north_down south_down"/> </vehicle>
    <vehicle id="right_133" type="2" depart="1655" > <route edges="west_right east_right"/> </vehicle>
    <vehicle id="left_134" type="1" depart="1655"> <route edges="east_left west_left"/>  </vehicle>
    <vehicle id="down_135" type="0" depart="1655">  <route edges="north_down south_down"/> </vehicle>
    <vehicle id="right_136" type="2" depart="1662" > <route edges="west_right east_right"/> </vehicle>
    <vehicle id="left_137" type="1" depart="1662"> <route edges="east_left west_left"/>  </vehicle>
    <vehicle id="down_138" type="0" depart="1662">  <route edges="north_down south_down"/> </vehicle>
    <vehicle id="right_139" type="2" depart="1669" > <route edges="west_right east_right"/> </vehicle>
    <vehicle id="left_140" type="1" depart="1669"> <route edges="east_left west_left"/>  </vehicle>
    <vehicle id="down_141" type="0" depart="1669">  <route edges="north_down south_down"/> </vehicle>
    <vehicle id="right_142" type="2" depart="1676" > <route edges="west_right east_right"/> </vehicle>
    <vehicle id="left_143" type="1" depart="1676"> <route edges="east_left west_left"/>  </vehicle>
    <vehicle id="down_144" type="0" depart="1676">  <route edges="north_down south_down"/> </vehicle>
    <vehicle id="right_145" type="2" depart="1683" > <route edges="west_right east_right"/> </vehicle>
    <vehicle id="left_146" type="1" depart="1683"> <route edges="east_left west_left"/>  </vehicle>
    <vehicle id="right_147" type="2" depart="1690" > <route edges="west_right east_right"/> </vehicle>
    <vehicle id="left_148" type="1" depart="1690"> <route edges="east_left west_left"/>  </vehicle>
    <vehicle id="right_149" type="2" depart="1697" > <route edges="west_right east_right"/> </vehicle>
    <vehicle id="left_150" type="1" depart="1697"> <route edges="east_left west_left"/>  </vehicle>
    <vehicle id="right_151" type="2" depart="1704" > <route edges="west_right east_right"/> </vehicle>
    <vehicle id="left_152" type="1" depart="1704"> <route edges="east_left west_left"/>  </vehicle>
    <vehicle id="right_153" type="2" depart="1711" > <route edges="west_right east_right"/> </vehicle>
    <vehicle id="left_154" type="1" depart="1711"> <route edges="east_left west_left"/>  </vehicle>
    <vehicle id="right_155" type="2" depart="1718" > <route edges="west_right east_right"/> </vehicle>
    <vehicle id="left_156" type="1" depart="1718"> <route edges="east_left west_left"/>  </vehicle>
    <vehicle id="right_157" type="2" depart="1725" > <route edges="west_right east_right"/> </vehicle>
    <vehicle id="left_158" type="1" depart="1725"> <route edges="east_left west_left"/>  </vehicle>
    <vehicle id="right_159" type="2" depart="1732" > <route edges="west_right east_right"/> </vehicle>
    <vehicle id="left_160" type="1" depart="1732"> <route edges="east_left west_left"/>  </vehicle>
    <vehicle id="right_161" type="2" depart="1739" > <route edges="west_right east_right"/> </vehicle>
    <vehicle id="left_162" type="1" depart="1739"> <route edges="east_left west_left"/>  </vehicle>
    <vehicle id="right_163" type="2" depart="1746" > <route edges="west_right east_right"/> </vehicle>
    <vehicle id="left_164" type="1" depart="1746"> <route edges="east_left west_left"/>  </vehicle>
    <vehicle id="right_165" type="2" depart="1753" > <route edges="west_right east_right"/> </vehicle>
    <vehicle id="left_166" type="1" depart="1753"> <route edges="east_left west_left"/>  </vehicle>
    <vehicle id="right_167" type="2" depart="1760" > <route edges="west_right east_right"/> </vehicle>
    <vehicle id="left_168" type="1" depart="1760"> <route edges="east_left west_left"/>  </vehicle>
    <vehicle id="right_169" type="2" depart="1767" > <route edges="west_right east_right"/> </vehicle>
    <vehicle id="right_170" type="2" depart="2007" > <route edges="west_right east_right"/> </vehicle>
    <vehicle id="left_171" type="1" depart="2007"> <route edges="east_left west_left"/>  </vehicle>
    <vehicle id="down_172" type="0" depart="2007">  <route edges="north_down south_down"/> </vehicle>
    <vehicle id="right_173" type="2" depart="2015" > <route edges="west_right east_right"/> </vehicle>
    <vehicle id="left_174" type="1" depart="2015"> <route edges="east_left west_left"/>  </vehicle>
    <vehicle id="down_175" type="0" depart="2015">  <route edges="north_down south_down"/> </vehicle>
    <vehicle id="right_176" type="2" depart="2023" > <route edges="west_right east_right"/> </vehicle>
    <vehicle id="left_177" type="1" depart="2023"> <route edges="east_left west_left"/>  </vehicle>
    <vehicle id="down_178" type="0" depart="2023">  <route edges="north_down south_down"/> </vehicle>
    <vehicle id="right_179" type="2" depart="2031" > <route edges="west_right east_right"/> </vehicle>
    <vehicle id="left_180" type="1" depart="2031"> <route edges="east_left west_left"/>  </vehicle>
    <vehicle id="down_181" type="0" depart="2031">  <route edges="north_down south_down"/> </vehicle>
    <vehicle id="right_182" type="2" depart="2039" > <route edges="west_right east_right"/> </vehicle>
    <vehicle id="left_183" type="1" depart="2039"> <route edges="east_left west_left"/>  </vehicle>
    <vehicle id="down_184" type="0" depart="2039">  <route edges="north_down south_down"/> </vehicle>
    <vehicle id="right_185" type="2" depart="2047" > <route edges="west_right east_right"/> </vehicle>
    <vehicle id="left_186" type="1" depart="2047"> <route edges="east_left west_left"/>  </vehicle>
    <vehicle id="down_187" type="0" depart="2047">  <route edges="north_down south_down"/> </vehicle>
    <vehicle id="right_188" type="2" depart="2055" > <route edges="west_right east_right"/> </vehicle>
    <vehicle id="left_189" type="1" depart="2055"> <route edges="east_left west_left"/>  </vehicle>
    <vehicle id="down_190" type="0" depart="2055">  <route edges="north_down south_down"/> </vehicle>
    <vehicle id="right_191" type="2" depart="2063" > <route edges="west_right east_right"/> </vehicle>
    <vehicle id="left_192" type="1" depart="2063"> <route edges="east_left west_left"/>  </vehicle>
    <vehicle id="down_193" type="0" depart="2063">  <route edges="north_down south_down"/> </vehicle>
    <vehicle id="right_194" type="2" depart="2071" > <route edges="west_right east_right"/> </vehicle>
    <vehicle id="left_195" type="1" depart="2071"> <route edges="east_left west_left"/>  </vehicle>
    <vehicle id="down_196" type="0" depart="2071">  <route edges="north_down south_down"/> </vehicle>
    <vehicle id="right_197" type="2" depart="2079" > <route edges="west_right east_right"/> </vehicle>
    <vehicle id="left_198" type="1" depart="2079"> <route edges="east_left west_left"/>  </vehicle>
    <vehicle id="right_199" type="2" depart="2087" > <route edges="west_right east_right"/> </vehicle>
    <vehicle id="left_200" type="1" depart="2087"> <route edges="east_left west_left"/>  </vehicle>
    <vehicle id="right_201" type="2" depart="2095" > <route edges="west_right east_right"/> </vehicle>
    <vehicle id="left_202" type="1" depart="2095"> <route edges="east_left west_left"/>  </vehicle>
    <vehicle id="right_203" type="2" depart="2103" > <route edges="west_right east_right"/> </vehicle>
    <vehicle id="left_204" type="1" depart="2103"> <route edges="east_left west_left"/>  </vehicle>
    <vehicle id="right_205" type="2" depart="2111" > <route edges="west_right east_right"/> </vehicle>
    <vehicle id="left_206" type="1" depart="2111"> <route edges="east_left west_left"/>  </vehicle>
    <vehicle id="right_207" type="2" depart="2119" > <route edges="west_right east_right"/> </vehicle>
    <vehicle id="left_208" type="1" depart="2119"> <route edges="east_left west_left"/>  </vehicle>
    <vehicle id="right_209" type="2" depart="2127" > <route edges="west_right east_right"/> </vehicle>
    <vehicle id="left_210" type="1" depart="2127"> <route edges="east_left west_left"/>  </vehicle>
    <vehicle id="right_211" type="2" depart="2135" > <route edges="west_right east_right"/> </vehicle>
    <vehicle id="left_212" type="1" depart="2135"> <route edges="east_left west_left"/>  </vehicle>
    <vehicle id="right_213" type="2" depart="2143" > <route edges="west_right east_right"/> </vehicle>
    <vehicle id="left_214" type="1" depart="2143"> <route edges="east_left west_left"/>  </vehicle>
    <vehicle id="right_215" type="2" depart="2151" > <route edges="west_right east_right"/> </vehicle>
    <vehicle id="right_216" type="2" depart="2410" > <route edges="west_right east_right"/> </vehicle>
    <vehicle id="left_217" type="1" depart="2410"> <route edges="east_left west_left"/>  </vehicle>
    <vehicle id="down_218" type="0" depart="2410">  <route edges="north_down south_down"/> </vehicle>
    <vehicle id="right_219" type="2" depart="2421" > <route edges="west_right east_right"/> </vehicle>
    <vehicle id="left_220" type="1" depart="2421"> <route edges="east_left west_left"/>  </vehicle>
    <vehicle id="down_221" type="0" depart="2421">  <route edges="north_down south_down"/> </vehicle>
    <vehicle id="right_222" type="2" depart="2432" > <route edges="west_right east_right"/> </vehicle>
    <vehicle id="left_223" type="1" depart="2432"> <route edges="east_left west_left"/>  </vehicle>
    <vehicle id="down_224" type="0" depart="2432">  <route edges="north_down south_down"/> </vehicle>
    <vehicle id="right_225" type="2" depart="2443" > <route edges="west_right east_right"/> </vehicle>
    <vehicle id="left_226" type="1" depart="2443"> <route edges="east_left west_left"/>  </vehicle>
    <vehicle id="down_227" type="0" depart="2443">  <route edges="north_down south_down"/> </vehicle>
    <vehicle id="right_228" type="2" depart="2454" > <route edges="west_right east_right"/> </vehicle>
    <vehicle id="left_229" type="1" depart="2454"> <route edges="east_left west_left"/>  </vehicle>
    <vehicle id="down_230" type="0" depart="2454">  <route edges="north_down south_down"/> </vehicle>
    <vehicle id="right_231" type="2" depart="2465" > <route edges="west_right east_right"/> </vehicle>
    <vehicle id="left_232" type="1" depart="2465"> <route edges="east_left west_left"/>  </vehicle>
    <vehicle id="down_233" type="0" depart="2465">  <route edges="north_down south_down"/> </vehicle>
    <vehicle id="right_234" type="2" depart="2476" > <route edges="west_right east_right"/> </vehicle>
    <vehicle id="left_235" type="1" depart="2476"> <route edges="east_left west_left"/>  </vehicle>
    <vehicle id="right_236" type="2" depart="2487" > <route edges="west_right east_right"/> </vehicle>
    <vehicle id="left_237" type="1" depart="2487"> <route edges="east_left west_left"/>  </vehicle>
    <vehicle id="right_238" type="2" depart="2498" > <route edges="west_right east_right"/> </vehicle>
    <vehicle id="left_239" type="1" depart="2498"> <route edges="east_left west_left"/>  </vehicle>
    <vehicle id="right_240" type="2" depart="2509" > <route edges="west_right east_right"/> </vehicle>
    <vehicle id="left_241" type="1" depart="2509"> <route edges="east_left west_left"/>  </vehicle>
    <vehicle id="right_242" type="2" depart="2520" > <route edges="west_right east_right"/> </vehicle>
    <vehicle id="left_243" type="1" depart="2520"> <route edges="east_left west_left"/>  </vehicle>
    <vehicle id="right_244" type="2" depart="2531" > <route edges="west_right east_right"/> </vehicle>
    <vehicle id="left_245" type="1" depart="2531"> <route edges="east_left west_left"/>  </vehicle>
    <vehicle id="right_246" type="2" depart="2542" > <route edges="west_right east_right"/> </vehicle>
    <vehicle id="left_247" type="1" depart="2542"> <route edges="east_left west_left"/>  </vehicle>
    <vehicle id="right_248" type="2" depart="2553" > <route edges="west_right east_right"/> </vehicle>
    <vehicle id="right_249" type="2" depart="2816" > <route edges="west_right east_right"/> </vehicle>
    <vehicle id="left_250" type="1" depart="2816"> <route edges="east_left west_left"/>  </vehicle>
    <vehicle id="down_251" type="0" depart="2816">  <route edges="north_down south_down"/> </vehicle>
    <vehicle id="right_252" type="2" depart="2833" > <route edges="west_right east_right"/> </vehicle>
    <vehicle id="left_253" type="1" depart="2833"> <route edges="east_left west_left"/>  </vehicle>
    <vehicle id="down_254" type="0" depart="2833">  <route edges="north_down south_down"/> </vehicle>
    <vehicle id="right_255" type="2" depart="2850" > <route edges="west_right east_right"/> </vehicle>
    <vehicle id="left_256" type="1" depart="2850"> <route edges="east_left west_left"/>  </vehicle>
    <vehicle id="down_257" type="0" depart="2850">  <route edges="north_down south_down"/> </vehicle>
    <vehicle id="right_258" type="2" depart="2867" > <route edges="west_right east_right"/> </vehicle>
    <vehicle id="left_259" type="1" depart="2867"> <route edges="east_left west_left"/>  </vehicle>
    <vehicle id="down_260" type="0" depart="2867">  <route edges="north_down south_down"/> </vehicle>
    <vehicle id="right_261" type="2" depart="2884" > <route edges="west_right east_right"/> </vehicle>
    <vehicle id="left_262" type="1" depart="2884"> <route edges="east_left west_left"/>  </vehicle>
    <vehicle id="right_263" type="2" depart="2901" > <route edges="west_right east_right"/> </vehicle>
    <vehicle id="left_264" type="1" depart="2901"> <route edges="east_left west_left"/>  </vehicle>
    <vehicle id="right_265" type="2" depart="2918" > <route edges="west_right east_right"/> </vehicle>
    <vehicle id="left_266" type="1" depart="2918"> <route edges="east_left west_left"/>  </vehicle>
    <vehicle id="right_267" type="2" depart="2935" > <route edges="west_right east_right"/> </vehicle>
    <vehicle id="left_268" type="1" depart="2935"> <route edges="east_left west_left"/>  </vehicle>
    <vehicle id="right_269" type="2" depart="2952" > <route edges="west_right east_right"/> </vehicle>
    <vehicle id="left_270" type="1" depart="2952"> <route edges="east_left west_left"/>  </vehicle>
    <vehicle id="right_271" type="2" depart="2969" > <route edges="west_right east_right"/> </vehicle>
    <vehicle id="right_272" type="2" depart="3232" > <route edges="west_right east_right"/> </vehicle>
    <vehicle id="left_273" type="1" depart="3232"> <route edges="east_left west_left"/>  </vehicle>
    <vehicle id="down_274" type="0" depart="3232">  <route edges="north_down south_down"/> </vehicle>
    <vehicle id="right_275" type="2" depart="3265" > <route edges="west_right east_right"/> </vehicle>
    <vehicle id="left_276" type="1" depart="3265"> <route edges="east_left west_left"/>  </vehicle>
    <vehicle id="right_277" type="2" depart="3298" > <route edges="west_right east_right"/> </vehicle>
    <vehicle id="left_278" type="1" depart="3298"> <route edges="east_left west_left"/>  </vehicle>
    <vehicle id="right_279" type="2" depart="3331" > <route edges="west_right east_right"/> </vehicle>
    <vehicle id="left_280" type="1" depart="3331"> <route edges="east_left west_left"/>  </vehicle>
    <vehicle id="right_281" type="2" depart="3364" > <route edges="west_right east_right"/> </vehicle>
</routes>
