<routes>
        <vType id="2" length="4.00" minGap="2.50" maxSpeed="14.00" guiShape="passenger" accel="2" decel="4.5" sigma="0.5" />
        <vType id="1" length="3.00" minGap="2.50" maxSpeed="14.00" guiShape="passenger" accel="2" decel="4.5" sigma="0.5" />
        <vType id="0" length="5.00" minGap="2.50" maxSpeed="14.00" guiShape="passenger" accel="2" decel="4.5" sigma="0.5" />
        <vType id="Emergency" length="7.00" minGap="2.50" maxSpeed="14.00" guiShape="emergency" accel="2" decel="4.5" sigma="0.5"/>
        
    <vehicle id="right_0" type="2" depart="32" > <route edges="west_right east_right"/> </vehicle>
    <vehicle id="left_1" type="1" depart="32"> <route edges="east_left west_left"/>  </vehicle>
    <vehicle id="down_2" type="0" depart="32">  <route edges="north_down south_down"/> </vehicle>
    <vehicle id="right_3" type="2" depart="65" > <route edges="west_right east_right"/> </vehicle>
    <vehicle id="left_4" type="1" depart="65"> <route edges="east_left west_left"/>  </vehicle>
    <vehicle id="right_5" type="2" depart="98" > <route edges="west_right east_right"/> </vehicle>
    <vehicle id="left_6" type="1" depart="98"> <route edges="east_left west_left"/>  </vehicle>
    <vehicle id="right_7" type="2" depart="131" > <route edges="west_right east_right"/> </vehicle>
    <vehicle id="left_8" type="1" depart="131"> <route edges="east_left west_left"/>  </vehicle>
    <vehicle id="right_9" type="2" depart="164" > <route edges="west_right east_right"/> </vehicle>
    <vehicle id="right_10" type="2" depart="416" > <route edges="west_right east_right"/> </vehicle>
    <vehicle id="left_11" type="1" depart="416"> <route edges="east_left west_left"/>  </vehicle>
    <vehicle id="down_12" type="0" depart="416">  <route edges="north_down south_down"/> </vehicle>
    <vehicle id="right_13" type="2" depart="433" > <route edges="west_right east_right"/> </vehicle>
    <vehicle id="left_14" type="1" depart="433"> <route edges="east_left west_left"/>  </vehicle>
    <vehicle id="down_15" type="0" depart="433">  <route edges="north_down south_down"/> </vehicle>
    <vehicle id="right_16" type="2" depart="450" > <route edges="west_right east_right"/> </vehicle>
    <vehicle id="left_17" type="1" depart="450"> <route edges="east_left west_left"/>  </vehicle>
    <vehicle id="down_18" type="0" depart="450">  <route edges="north_down south_down"/> </vehicle>
    <vehicle id="right_19" type="2" depart="467" > <route edges="west_right east_right"/> </vehicle>
    <vehicle id="left_20" type="1" depart="467"> <route edges="east_left west_left"/>  </vehicle>
    <vehicle id="down_21" type="0" depart="467">  <route edges="north_down south_down"/> </vehicle>
    <vehicle id="right_22" type="2" depart="484" > <route edges="west_right east_right"/> </vehicle>
    <vehicle id="left_23" type="1" depart="484"> <route edges="east_left west_left"/>  </vehicle>
    <vehicle id="right_24" type="2" depart="501" > <route edges="west_right east_right"/> </vehicle>
    <vehicle id="left_25" type="1" depart="501"> <route edges="east_left west_left"/>  </vehicle>
    <vehicle id="right_26" type="2" depart="518" > <route edges="west_right east_right"/> </vehicle>
    <vehicle id="left_27" type="1" depart="518"> <route edges="east_left west_left"/>  </vehicle>
    <vehicle id="right_28" type="2" depart="535" > <route edges="west_right east_right"/> </vehicle>
    <vehicle id="left_29" type="1" depart="535"> <route edges="east_left west_left"/>  </vehicle>
    <vehicle id="right_30" type="2" depart="552" > <route edges="west_right east_right"/> </vehicle>
    <vehicle id="left_31" type="1" depart="552"> <route edges="east_left west_left"/>  </vehicle>
    <vehicle id="right_32" type="2" depart="569" > <route edges="west_right east_right"/> </vehicle>
    <vehicle id="right_33" type="2" depart="810" > <route edges="west_right east_right"/> </vehicle>
    <vehicle id="left_34" type="1" depart="810"> <route edges="east_left west_left"/>  </vehicle>
    <vehicle id="down_35" type="0" depart="810">  <route edges="north_down south_down"/> </vehicle>
    <vehicle id="leftEmergency_36" type="Emergency" depart="810"> <route edges="east_left west_left"/>  </vehicle>
    <vehicle id="right_37" type="2" depart="821" > <route edges="west_right east_right"/> </vehicle>
    <vehicle id="left_38" type="1" depart="821"> <route edges="east_left west_left"/>  </vehicle>
    <vehicle id="down_39" type="0" depart="821">  <route edges="north_down south_down"/> </vehicle>
    <vehicle id="right_40" type="2" depart="832" > <route edges="west_right east_right"/> </vehicle>
    <vehicle id="left_41" type="1" depart="832"> <route edges="east_left west_left"/>  </vehicle>
    <vehicle id="down_42" type="0" depart="832">  <route edges="north_down south_down"/> </vehicle>
    <vehicle id="right_43" type="2" depart="843" > <route edges="west_right east_right"/> </vehicle>
    <vehicle id="left_44" type="1" depart="843"> <route edges="east_left west_left"/>  </vehicle>
    <vehicle id="down_45" type="0" depart="843">  <route edges="north_down south_down"/> </vehicle>
    <vehicle id="right_46" type="2" depart="854" > <route edges="west_right east_right"/> </vehicle>
    <vehicle id="left_47" type="1" depart="854"> <route edges="east_left west_left"/>  </vehicle>
    <vehicle id="down_48" type="0" depart="854">  <route edges="north_down south_down"/> </vehicle>
    <vehicle id="right_49" type="2" depart="865" > <route edges="west_right east_right"/> </vehicle>
    <vehicle id="left_50" type="1" depart="865"> <route edges="east_left west_left"/>  </vehicle>
    <vehicle id="down_51" type="0" depart="865">  <route edges="north_down south_down"/> </vehicle>
    <vehicle id="right_52" type="2" depart="876" > <route edges="west_right east_right"/> </vehicle>
    <vehicle id="left_53" type="1" depart="876"> <route edges="east_left west_left"/>  </vehicle>
    <vehicle id="right_54" type="2" depart="887" > <route edges="west_right east_right"/> </vehicle>
    <vehicle id="left_55" type="1" depart="887"> <route edges="east_left west_left"/>  </vehicle>
    <vehicle id="right_56" type="2" depart="898" > <route edges="west_right east_right"/> </vehicle>
    <vehicle id="left_57" type="1" depart="898"> <route edges="east_left west_left"/>  </vehicle>
    <vehicle id="right_58" type="2" depart="909" > <route edges="west_right east_right"/> </vehicle>
    <vehicle id="left_59" type="1" depart="909"> <route edges="east_left west_left"/>  </vehicle>
    <vehicle id="right_60" type="2" depart="920" > <route edges="west_right east_right"/> </vehicle>
    <vehicle id="left_61" type="1" depart="920"> <route edges="east_left west_left"/>  </vehicle>
    <vehicle id="right_62" type="2" depart="931" > <route edges="west_right east_right"/> </vehicle>
    <vehicle id="left_63" type="1" depart="931"> <route edges="east_left west_left"/>  </vehicle>
    <vehicle id="right_64" type="2" depart="942" > <route edges="west_right east_right"/> </vehicle>
    <vehicle id="left_65" type="1" depart="942"> <route edges="east_left west_left"/>  </vehicle>
    <vehicle id="right_66" type="2" depart="953" > <route edges="west_right east_right"/> </vehicle>
    <vehicle id="right_67" type="2" depart="1207" > <route edges="west_right east_right"/> </vehicle>
    <vehicle id="left_68" type="1" depart="1207"> <route edges="east_left west_left"/>  </vehicle>
    <vehicle id="down_69" type="0" depart="1207">  <route edges="north_down south_down"/> </vehicle>
    <vehicle id="downEmergency_70" type="Emergency" depart="1207"> <route edges="north_down south_down"/>  </vehicle>
    <vehicle id="right_71" type="2" depart="1215" > <route edges="west_right east_right"/> </vehicle>
    <vehicle id="left_72" type="1" depart="1215"> <route edges="east_left west_left"/>  </vehicle>
    <vehicle id="down_73" type="0" depart="1215">  <route edges="north_down south_down"/> </vehicle>
    <vehicle id="right_74" type="2" depart="1223" > <route edges="west_right east_right"/> </vehicle>
    <vehicle id="left_75" type="1" depart="1223"> <route edges="east_left west_left"/>  </vehicle>
    <vehicle id="down_76" type="0" depart="1223">  <route edges="north_down south_down"/> </vehicle>
    <vehicle id="right_77" type="2" depart="1231" > <route edges="west_right east_right"/> </vehicle>
    <vehicle id="left_78" type="1" depart="1231"> <route edges="east_left west_left"/>  </vehicle>
    <vehicle id="down_79" type="0" depart="1231">  <route edges="north_down south_down"/> </vehicle>
    <vehicle id="right_80" type="2" depart="1239" > <route edges="west_right east_right"/> </vehicle>
    <vehicle id="left_81" type="1" depart="1239"> <route edges="east_left west_left"/>  </vehicle>
    <vehicle id="down_82" type="0" depart="1239">  <route edges="north_down south_down"/> </vehicle>
    <vehicle id="right_83" type="2" depart="1247" > <route edges="west_right east_right"/> </vehicle>
    <vehicle id="left_84" type="1" depart="1247"> <route edges="east_left west_left"/>  </vehicle>
    <vehicle id="down_85" type="0" depart="1247">  <route edges="north_down south_down"/> </vehicle>
    <vehicle id="right_86" type="2" depart="1255" > <route edges="west_right east_right"/> </vehicle>
    <vehicle id="left_87" type="1" depart="1255"> <route edges="east_left west_left"/>  </vehicle>
    <vehicle id="down_88" type="0" depart="1255">  <route edges="north_down south_down"/> </vehicle>
    <vehicle id="right_89" type="2" depart="1263" > <route edges="west_right east_right"/> </vehicle>
    <vehicle id="left_90" type="1" depart="1263"> <route edges="east_left west_left"/>  </vehicle>
    <vehicle id="down_91" type="0" depart="1263">  <route edges="north_down south_down"/> </vehicle>
    <vehicle id="right_92" type="2" depart="1271" > <route edges="west_right east_right"/> </vehicle>
    <vehicle id="left_93" type="1" depart="1271"> <route edges="east_left west_left"/>  </vehicle>
    <vehicle id="down_94" type="0" depart="1271">  <route edges="north_down south_down"/> </vehicle>
    <vehicle id="right_95" type="2" depart="1279" > <route edges="west_right east_right"/> </vehicle>
    <vehicle id="left_96" type="1" depart="1279"> <route edges="east_left west_left"/>  </vehicle>
    <vehicle id="right_97" type="2" depart="1287" > <route edges="west_right east_right"/> </vehicle>
    <vehicle id="left_98" type="1" depart="1287"> <route edges="east_left west_left"/>  </vehicle>
    <vehicle id="right_99" type="2" depart="1295" > <route edges="west_right east_right"/> </vehicle>
    <vehicle id="left_100" type="1" depart="1295"> <route edges="east_left west_left"/>  </vehicle>
    <vehicle id="right_101" type="2" depart="1303" > <route edges="west_right east_right"/> </vehicle>
    <vehicle id="left_102" type="1" depart="1303"> <route edges="east_left west_left"/>  </vehicle>
    <vehicle id="right_103" type="2" depart="1311" > <route edges="west_right east_right"/> </vehicle>
    <vehicle id="left_104" type="1" depart="1311"> <route edges="east_left west_left"/>  </vehicle>
    <vehicle id="right_105" type="2" depart="1319" > <route edges="west_right east_right"/> </vehicle>
    <vehicle id="left_106" type="1" depart="1319"> <route edges="east_left west_left"/>  </vehicle>
    <vehicle id="right_107" type="2" depart="1327" > <route edges="west_right east_right"/> </vehicle>
    <vehicle id="left_108" type="1" depart="1327"> <route edges="east_left west_left"/>  </vehicle>
    <vehicle id="right_109" type="2" depart="1335" > <route edges="west_right east_right"/> </vehicle>
    <vehicle id="left_110" type="1" depart="1335"> <route edges="east_left west_left"/>  </vehicle>
    <vehicle id="right_111" type="2" depart="1343" > <route edges="west_right east_right"/> </vehicle>
    <vehicle id="left_112" type="1" depart="1343"> <route edges="east_left west_left"/>  </vehicle>
    <vehicle id="right_113" type="2" depart="1351" > <route edges="west_right east_right"/> </vehicle>
    <vehicle id="right_114" type="2" depart="1606" > <route edges="west_right east_right"/> </vehicle>
    <vehicle id="left_115" type="1" depart="1606"> <route edges="east_left west_left"/>  </vehicle>
    <vehicle id="down_116" type="0" depart="1606">  <route edges="north_down south_down"/> </vehicle>
    <vehicle id="rightEmergency_117" type="Emergency" depart="1606"> <route edges="west_right east_right"/>  </vehicle>
    <vehicle id="right_118" type="2" depart="1613" > <route edges="west_right east_right"/> </vehicle>
    <vehicle id="left_119" type="1" depart="1613"> <route edges="east_left west_left"/>  </vehicle>
    <vehicle id="down_120" type="0" depart="1613">  <route edges="north_down south_down"/> </vehicle>
    <vehicle id="right_121" type="2" depart="1620" > <route edges="west_right east_right"/> </vehicle>
    <vehicle id="left_122" type="1" depart="1620"> <route edges="east_left west_left"/>  </vehicle>
    <vehicle id="down_123" type="0" depart="1620">  <route edges="north_down south_down"/> </vehicle>
    <vehicle id="right_124" type="2" depart="1627" > <route edges="west_right east_right"/> </vehicle>
    <vehicle id="left_125" type="1" depart="1627"> <route edges="east_left west_left"/>  </vehicle>
    <vehicle id="down_126" type="0" depart="1627">  <route edges="north_down south_down"/> </vehicle>
    <vehicle id="right_127" type="2" depart="1634" > <route edges="west_right east_right"/> </vehicle>
    <vehicle id="left_128" type="1" depart="1634"> <route edges="east_left west_left"/>  </vehicle>
    <vehicle id="down_129" type="0" depart="1634">  <route edges="north_down south_down"/> </vehicle>
    <vehicle id="right_130" type="2" depart="1641" > <route edges="west_right east_right"/> </vehicle>
    <vehicle id="left_131" type="1" depart="1641"> <route edges="east_left west_left"/>  </vehicle>
    <vehicle id="down_132" type="0" depart="1641">  <route edges="north_down south_down"/> </vehicle>
    <vehicle id="right_133" type="2" depart="1648" > <route edges="west_right east_right"/> </vehicle>
    <vehicle id="left_134" type="1" depart="1648"> <route edges="east_left west_left"/>  </vehicle>
    <vehicle id="down_135" type="0" depart="1648">  <route edges="north_down south_down"/> </vehicle>
    <vehicle id="right_136" type="2" depart="1655" > <route edges="west_right east_right"/> </vehicle>
    <vehicle id="left_137" type="1" depart="1655"> <route edges="east_left west_left"/>  </vehicle>
    <vehicle id="down_138" type="0" depart="1655">  <route edges="north_down south_down"/> </vehicle>
    <vehicle id="right_139" type="2" depart="1662" > <route edges="west_right east_right"/> </vehicle>
    <vehicle id="left_140" type="1" depart="1662"> <route edges="east_left west_left"/>  </vehicle>
    <vehicle id="down_141" type="0" depart="1662">  <route edges="north_down south_down"/> </vehicle>
    <vehicle id="right_142" type="2" depart="1669" > <route edges="west_right east_right"/> </vehicle>
    <vehicle id="left_143" type="1" depart="1669"> <route edges="east_left west_left"/>  </vehicle>
    <vehicle id="down_144" type="0" depart="1669">  <route edges="north_down south_down"/> </vehicle>
    <vehicle id="right_145" type="2" depart="1676" > <route edges="west_right east_right"/> </vehicle>
    <vehicle id="left_146" type="1" depart="1676"> <route edges="east_left west_left"/>  </vehicle>
    <vehicle id="down_147" type="0" depart="1676">  <route edges="north_down south_down"/> </vehicle>
    <vehicle id="right_148" type="2" depart="1683" > <route edges="west_right east_right"/> </vehicle>
    <vehicle id="left_149" type="1" depart="1683"> <route edges="east_left west_left"/>  </vehicle>
    <vehicle id="right_150" type="2" depart="1690" > <route edges="west_right east_right"/> </vehicle>
    <vehicle id="left_151" type="1" depart="1690"> <route edges="east_left west_left"/>  </vehicle>
    <vehicle id="right_152" type="2" depart="1697" > <route edges="west_right east_right"/> </vehicle>
    <vehicle id="left_153" type="1" depart="1697"> <route edges="east_left west_left"/>  </vehicle>
    <vehicle id="right_154" type="2" depart="1704" > <route edges="west_right east_right"/> </vehicle>
    <vehicle id="left_155" type="1" depart="1704"> <route edges="east_left west_left"/>  </vehicle>
    <vehicle id="right_156" type="2" depart="1711" > <route edges="west_right east_right"/> </vehicle>
    <vehicle id="left_157" type="1" depart="1711"> <route edges="east_left west_left"/>  </vehicle>
    <vehicle id="right_158" type="2" depart="1718" > <route edges="west_right east_right"/> </vehicle>
    <vehicle id="left_159" type="1" depart="1718"> <route edges="east_left west_left"/>  </vehicle>
    <vehicle id="right_160" type="2" depart="1725" > <route edges="west_right east_right"/> </vehicle>
    <vehicle id="left_161" type="1" depart="1725"> <route edges="east_left west_left"/>  </vehicle>
    <vehicle id="right_162" type="2" depart="1732" > <route edges="west_right east_right"/> </vehicle>
    <vehicle id="left_163" type="1" depart="1732"> <route edges="east_left west_left"/>  </vehicle>
    <vehicle id="right_164" type="2" depart="1739" > <route edges="west_right east_right"/> </vehicle>
    <vehicle id="left_165" type="1" depart="1739"> <route edges="east_left west_left"/>  </vehicle>
    <vehicle id="right_166" type="2" depart="1746" > <route edges="west_right east_right"/> </vehicle>
    <vehicle id="left_167" type="1" depart="1746"> <route edges="east_left west_left"/>  </vehicle>
    <vehicle id="right_168" type="2" depart="1753" > <route edges="west_right east_right"/> </vehicle>
    <vehicle id="left_169" type="1" depart="1753"> <route edges="east_left west_left"/>  </vehicle>
    <vehicle id="right_170" type="2" depart="1760" > <route edges="west_right east_right"/> </vehicle>
    <vehicle id="left_171" type="1" depart="1760"> <route edges="east_left west_left"/>  </vehicle>
    <vehicle id="right_172" type="2" depart="1767" > <route edges="west_right east_right"/> </vehicle>
    <vehicle id="right_173" type="2" depart="2007" > <route edges="west_right east_right"/> </vehicle>
    <vehicle id="left_174" type="1" depart="2007"> <route edges="east_left west_left"/>  </vehicle>
    <vehicle id="down_175" type="0" depart="2007">  <route edges="north_down south_down"/> </vehicle>
    <vehicle id="leftEmergency_176" type="Emergency" depart="2007"> <route edges="east_left west_left"/>  </vehicle>
    <vehicle id="right_177" type="2" depart="2015" > <route edges="west_right east_right"/> </vehicle>
    <vehicle id="left_178" type="1" depart="2015"> <route edges="east_left west_left"/>  </vehicle>
    <vehicle id="down_179" type="0" depart="2015">  <route edges="north_down south_down"/> </vehicle>
    <vehicle id="right_180" type="2" depart="2023" > <route edges="west_right east_right"/> </vehicle>
    <vehicle id="left_181" type="1" depart="2023"> <route edges="east_left west_left"/>  </vehicle>
    <vehicle id="down_182" type="0" depart="2023">  <route edges="north_down south_down"/> </vehicle>
    <vehicle id="right_183" type="2" depart="2031" > <route edges="west_right east_right"/> </vehicle>
    <vehicle id="left_184" type="1" depart="2031"> <route edges="east_left west_left"/>  </vehicle>
    <vehicle id="down_185" type="0" depart="2031">  <route edges="north_down south_down"/> </vehicle>
    <vehicle id="right_186" type="2" depart="2039" > <route edges="west_right east_right"/> </vehicle>
    <vehicle id="left_187" type="1" depart="2039"> <route edges="east_left west_left"/>  </vehicle>
    <vehicle id="down_188" type="0" depart="2039">  <route edges="north_down south_down"/> </vehicle>
    <vehicle id="right_189" type="2" depart="2047" > <route edges="west_right east_right"/> </vehicle>
    <vehicle id="left_190" type="1" depart="2047"> <route edges="east_left west_left"/>  </vehicle>
    <vehicle id="down_191" type="0" depart="2047">  <route edges="north_down south_down"/> </vehicle>
    <vehicle id="right_192" type="2" depart="2055" > <route edges="west_right east_right"/> </vehicle>
    <vehicle id="left_193" type="1" depart="2055"> <route edges="east_left west_left"/>  </vehicle>
    <vehicle id="down_194" type="0" depart="2055">  <route edges="north_down south_down"/> </vehicle>
    <vehicle id="right_195" type="2" depart="2063" > <route edges="west_right east_right"/> </vehicle>
    <vehicle id="left_196" type="1" depart="2063"> <route edges="east_left west_left"/>  </vehicle>
    <vehicle id="down_197" type="0" depart="2063">  <route edges="north_down south_down"/> </vehicle>
    <vehicle id="right_198" type="2" depart="2071" > <route edges="west_right east_right"/> </vehicle>
    <vehicle id="left_199" type="1" depart="2071"> <route edges="east_left west_left"/>  </vehicle>
    <vehicle id="down_200" type="0" depart="2071">  <route edges="north_down south_down"/> </vehicle>
    <vehicle id="right_201" type="2" depart="2079" > <route edges="west_right east_right"/> </vehicle>
    <vehicle id="left_202" type="1" depart="2079"> <route edges="east_left west_left"/>  </vehicle>
    <vehicle id="right_203" type="2" depart="2087" > <route edges="west_right east_right"/> </vehicle>
    <vehicle id="left_204" type="1" depart="2087"> <route edges="east_left west_left"/>  </vehicle>
    <vehicle id="right_205" type="2" depart="2095" > <route edges="west_right east_right"/> </vehicle>
    <vehicle id="left_206" type="1" depart="2095"> <route edges="east_left west_left"/>  </vehicle>
    <vehicle id="right_207" type="2" depart="2103" > <route edges="west_right east_right"/> </vehicle>
    <vehicle id="left_208" type="1" depart="2103"> <route edges="east_left west_left"/>  </vehicle>
    <vehicle id="right_209" type="2" depart="2111" > <route edges="west_right east_right"/> </vehicle>
    <vehicle id="left_210" type="1" depart="2111"> <route edges="east_left west_left"/>  </vehicle>
    <vehicle id="right_211" type="2" depart="2119" > <route edges="west_right east_right"/> </vehicle>
    <vehicle id="left_212" type="1" depart="2119"> <route edges="east_left west_left"/>  </vehicle>
    <vehicle id="right_213" type="2" depart="2127" > <route edges="west_right east_right"/> </vehicle>
    <vehicle id="left_214" type="1" depart="2127"> <route edges="east_left west_left"/>  </vehicle>
    <vehicle id="right_215" type="2" depart="2135" > <route edges="west_right east_right"/> </vehicle>
    <vehicle id="left_216" type="1" depart="2135"> <route edges="east_left west_left"/>  </vehicle>
    <vehicle id="right_217" type="2" depart="2143" > <route edges="west_right east_right"/> </vehicle>
    <vehicle id="left_218" type="1" depart="2143"> <route edges="east_left west_left"/>  </vehicle>
    <vehicle id="right_219" type="2" depart="2151" > <route edges="west_right east_right"/> </vehicle>
    <vehicle id="right_220" type="2" depart="2410" > <route edges="west_right east_right"/> </vehicle>
    <vehicle id="left_221" type="1" depart="2410"> <route edges="east_left west_left"/>  </vehicle>
    <vehicle id="down_222" type="0" depart="2410">  <route edges="north_down south_down"/> </vehicle>
    <vehicle id="right_223" type="2" depart="2421" > <route edges="west_right east_right"/> </vehicle>
    <vehicle id="left_224" type="1" depart="2421"> <route edges="east_left west_left"/>  </vehicle>
    <vehicle id="down_225" type="0" depart="2421">  <route edges="north_down south_down"/> </vehicle>
    <vehicle id="right_226" type="2" depart="2432" > <route edges="west_right east_right"/> </vehicle>
    <vehicle id="left_227" type="1" depart="2432"> <route edges="east_left west_left"/>  </vehicle>
    <vehicle id="down_228" type="0" depart="2432">  <route edges="north_down south_down"/> </vehicle>
    <vehicle id="right_229" type="2" depart="2443" > <route edges="west_right east_right"/> </vehicle>
    <vehicle id="left_230" type="1" depart="2443"> <route edges="east_left west_left"/>  </vehicle>
    <vehicle id="down_231" type="0" depart="2443">  <route edges="north_down south_down"/> </vehicle>
    <vehicle id="right_232" type="2" depart="2454" > <route edges="west_right east_right"/> </vehicle>
    <vehicle id="left_233" type="1" depart="2454"> <route edges="east_left west_left"/>  </vehicle>
    <vehicle id="down_234" type="0" depart="2454">  <route edges="north_down south_down"/> </vehicle>
    <vehicle id="right_235" type="2" depart="2465" > <route edges="west_right east_right"/> </vehicle>
    <vehicle id="left_236" type="1" depart="2465"> <route edges="east_left west_left"/>  </vehicle>
    <vehicle id="down_237" type="0" depart="2465">  <route edges="north_down south_down"/> </vehicle>
    <vehicle id="right_238" type="2" depart="2476" > <route edges="west_right east_right"/> </vehicle>
    <vehicle id="left_239" type="1" depart="2476"> <route edges="east_left west_left"/>  </vehicle>
    <vehicle id="right_240" type="2" depart="2487" > <route edges="west_right east_right"/> </vehicle>
    <vehicle id="left_241" type="1" depart="2487"> <route edges="east_left west_left"/>  </vehicle>
    <vehicle id="right_242" type="2" depart="2498" > <route edges="west_right east_right"/> </vehicle>
    <vehicle id="left_243" type="1" depart="2498"> <route edges="east_left west_left"/>  </vehicle>
    <vehicle id="right_244" type="2" depart="2509" > <route edges="west_right east_right"/> </vehicle>
    <vehicle id="left_245" type="1" depart="2509"> <route edges="east_left west_left"/>  </vehicle>
    <vehicle id="right_246" type="2" depart="2520" > <route edges="west_right east_right"/> </vehicle>
    <vehicle id="left_247" type="1" depart="2520"> <route edges="east_left west_left"/>  </vehicle>
    <vehicle id="right_248" type="2" depart="2531" > <route edges="west_right east_right"/> </vehicle>
    <vehicle id="left_249" type="1" depart="2531"> <route edges="east_left west_left"/>  </vehicle>
    <vehicle id="right_250" type="2" depart="2542" > <route edges="west_right east_right"/> </vehicle>
    <vehicle id="left_251" type="1" depart="2542"> <route edges="east_left west_left"/>  </vehicle>
    <vehicle id="right_252" type="2" depart="2553" > <route edges="west_right east_right"/> </vehicle>
    <vehicle id="right_253" type="2" depart="2816" > <route edges="west_right east_right"/> </vehicle>
    <vehicle id="left_254" type="1" depart="2816"> <route edges="east_left west_left"/>  </vehicle>
    <vehicle id="down_255" type="0" depart="2816">  <route edges="north_down south_down"/> </vehicle>
    <vehicle id="right_256" type="2" depart="2833" > <route edges="west_right east_right"/> </vehicle>
    <vehicle id="left_257" type="1" depart="2833"> <route edges="east_left west_left"/>  </vehicle>
    <vehicle id="down_258" type="0" depart="2833">  <route edges="north_down south_down"/> </vehicle>
    <vehicle id="right_259" type="2" depart="2850" > <route edges="west_right east_right"/> </vehicle>
    <vehicle id="left_260" type="1" depart="2850"> <route edges="east_left west_left"/>  </vehicle>
    <vehicle id="down_261" type="0" depart="2850">  <route edges="north_down south_down"/> </vehicle>
    <vehicle id="right_262" type="2" depart="2867" > <route edges="west_right east_right"/> </vehicle>
    <vehicle id="left_263" type="1" depart="2867"> <route edges="east_left west_left"/>  </vehicle>
    <vehicle id="down_264" type="0" depart="2867">  <route edges="north_down south_down"/> </vehicle>
    <vehicle id="right_265" type="2" depart="2884" > <route edges="west_right east_right"/> </vehicle>
    <vehicle id="left_266" type="1" depart="2884"> <route edges="east_left west_left"/>  </vehicle>
    <vehicle id="right_267" type="2" depart="2901" > <route edges="west_right east_right"/> </vehicle>
    <vehicle id="left_268" type="1" depart="2901"> <route edges="east_left west_left"/>  </vehicle>
    <vehicle id="right_269" type="2" depart="2918" > <route edges="west_right east_right"/> </vehicle>
    <vehicle id="left_270" type="1" depart="2918"> <route edges="east_left west_left"/>  </vehicle>
    <vehicle id="right_271" type="2" depart="2935" > <route edges="west_right east_right"/> </vehicle>
    <vehicle id="left_272" type="1" depart="2935"> <route edges="east_left west_left"/>  </vehicle>
    <vehicle id="right_273" type="2" depart="2952" > <route edges="west_right east_right"/> </vehicle>
    <vehicle id="left_274" type="1" depart="2952"> <route edges="east_left west_left"/>  </vehicle>
    <vehicle id="right_275" type="2" depart="2969" > <route edges="west_right east_right"/> </vehicle>
    <vehicle id="right_276" type="2" depart="3232" > <route edges="west_right east_right"/> </vehicle>
    <vehicle id="left_277" type="1" depart="3232"> <route edges="east_left west_left"/>  </vehicle>
    <vehicle id="down_278" type="0" depart="3232">  <route edges="north_down south_down"/> </vehicle>
    <vehicle id="right_279" type="2" depart="3265" > <route edges="west_right east_right"/> </vehicle>
    <vehicle id="left_280" type="1" depart="3265"> <route edges="east_left west_left"/>  </vehicle>
    <vehicle id="right_281" type="2" depart="3298" > <route edges="west_right east_right"/> </vehicle>
    <vehicle id="left_282" type="1" depart="3298"> <route edges="east_left west_left"/>  </vehicle>
    <vehicle id="right_283" type="2" depart="3331" > <route edges="west_right east_right"/> </vehicle>
    <vehicle id="left_284" type="1" depart="3331"> <route edges="east_left west_left"/>  </vehicle>
    <vehicle id="right_285" type="2" depart="3364" > <route edges="west_right east_right"/> </vehicle>
</routes>
