<routes>
        <vType id="2" length="4.00" minGap="2.50" maxSpeed="14.00" guiShape="passenger" accel="2" decel="4.5" sigma="0.5" />
        <vType id="1" length="3.00" minGap="2.50" maxSpeed="14.00" guiShape="passenger" accel="2" decel="4.5" sigma="0.5" />
        <vType id="0" length="5.00" minGap="2.50" maxSpeed="14.00" guiShape="passenger" accel="2" decel="4.5" sigma="0.5" />
        <vType id="Emergency" length="7.00" minGap="2.50" maxSpeed="14.00" guiShape="emergency" accel="2" decel="4.5" sigma="0.5"/>
        
    <vehicle id="right_0" type="2" depart="16" > <route edges="west_right east_right"/> </vehicle>
    <vehicle id="left_1" type="1" depart="16"> <route edges="east_left west_left"/>  </vehicle>
    <vehicle id="down_2" type="0" depart="16">  <route edges="north_down south_down"/> </vehicle>
    <vehicle id="right_3" type="2" depart="33" > <route edges="west_right east_right"/> </vehicle>
    <vehicle id="left_4" type="1" depart="33"> <route edges="east_left west_left"/>  </vehicle>
    <vehicle id="down_5" type="0" depart="33">  <route edges="north_down south_down"/> </vehicle>
    <vehicle id="right_6" type="2" depart="50" > <route edges="west_right east_right"/> </vehicle>
    <vehicle id="left_7" type="1" depart="50"> <route edges="east_left west_left"/>  </vehicle>
    <vehicle id="down_8" type="0" depart="50">  <route edges="north_down south_down"/> </vehicle>
    <vehicle id="right_9" type="2" depart="67" > <route edges="west_right east_right"/> </vehicle>
    <vehicle id="left_10" type="1" depart="67"> <route edges="east_left west_left"/>  </vehicle>
    <vehicle id="down_11" type="0" depart="67">  <route edges="north_down south_down"/> </vehicle>
    <vehicle id="right_12" type="2" depart="84" > <route edges="west_right east_right"/> </vehicle>
    <vehicle id="left_13" type="1" depart="84"> <route edges="east_left west_left"/>  </vehicle>
    <vehicle id="right_14" type="2" depart="101" > <route edges="west_right east_right"/> </vehicle>
    <vehicle id="left_15" type="1" depart="101"> <route edges="east_left west_left"/>  </vehicle>
    <vehicle id="right_16" type="2" depart="118" > <route edges="west_right east_right"/> </vehicle>
    <vehicle id="left_17" type="1" depart="118"> <route edges="east_left west_left"/>  </vehicle>
    <vehicle id="right_18" type="2" depart="135" > <route edges="west_right east_right"/> </vehicle>
    <vehicle id="left_19" type="1" depart="135"> <route edges="east_left west_left"/>  </vehicle>
    <vehicle id="right_20" type="2" depart="152" > <route edges="west_right east_right"/> </vehicle>
    <vehicle id="left_21" type="1" depart="152"> <route edges="east_left west_left"/>  </vehicle>
    <vehicle id="right_22" type="2" depart="169" > <route edges="west_right east_right"/> </vehicle>
    <vehicle id="right_23" type="2" depart="407" > <route edges="west_right east_right"/> </vehicle>
    <vehicle id="left_24" type="1" depart="407"> <route edges="east_left west_left"/>  </vehicle>
    <vehicle id="down_25" type="0" depart="407">  <route edges="north_down south_down"/> </vehicle>
    <vehicle id="right_26" type="2" depart="415" > <route edges="west_right east_right"/> </vehicle>
    <vehicle id="left_27" type="1" depart="415"> <route edges="east_left west_left"/>  </vehicle>
    <vehicle id="down_28" type="0" depart="415">  <route edges="north_down south_down"/> </vehicle>
    <vehicle id="right_29" type="2" depart="423" > <route edges="west_right east_right"/> </vehicle>
    <vehicle id="left_30" type="1" depart="423"> <route edges="east_left west_left"/>  </vehicle>
    <vehicle id="down_31" type="0" depart="423">  <route edges="north_down south_down"/> </vehicle>
    <vehicle id="right_32" type="2" depart="431" > <route edges="west_right east_right"/> </vehicle>
    <vehicle id="left_33" type="1" depart="431"> <route edges="east_left west_left"/>  </vehicle>
    <vehicle id="down_34" type="0" depart="431">  <route edges="north_down south_down"/> </vehicle>
    <vehicle id="right_35" type="2" depart="439" > <route edges="west_right east_right"/> </vehicle>
    <vehicle id="left_36" type="1" depart="439"> <route edges="east_left west_left"/>  </vehicle>
    <vehicle id="down_37" type="0" depart="439">  <route edges="north_down south_down"/> </vehicle>
    <vehicle id="right_38" type="2" depart="447" > <route edges="west_right east_right"/> </vehicle>
    <vehicle id="left_39" type="1" depart="447"> <route edges="east_left west_left"/>  </vehicle>
    <vehicle id="down_40" type="0" depart="447">  <route edges="north_down south_down"/> </vehicle>
    <vehicle id="right_41" type="2" depart="455" > <route edges="west_right east_right"/> </vehicle>
    <vehicle id="left_42" type="1" depart="455"> <route edges="east_left west_left"/>  </vehicle>
    <vehicle id="down_43" type="0" depart="455">  <route edges="north_down south_down"/> </vehicle>
    <vehicle id="right_44" type="2" depart="463" > <route edges="west_right east_right"/> </vehicle>
    <vehicle id="left_45" type="1" depart="463"> <route edges="east_left west_left"/>  </vehicle>
    <vehicle id="down_46" type="0" depart="463">  <route edges="north_down south_down"/> </vehicle>
    <vehicle id="right_47" type="2" depart="471" > <route edges="west_right east_right"/> </vehicle>
    <vehicle id="left_48" type="1" depart="471"> <route edges="east_left west_left"/>  </vehicle>
    <vehicle id="down_49" type="0" depart="471">  <route edges="north_down south_down"/> </vehicle>
    <vehicle id="right_50" type="2" depart="479" > <route edges="west_right east_right"/> </vehicle>
    <vehicle id="left_51" type="1" depart="479"> <route edges="east_left west_left"/>  </vehicle>
    <vehicle id="right_52" type="2" depart="487" > <route edges="west_right east_right"/> </vehicle>
    <vehicle id="left_53" type="1" depart="487"> <route edges="east_left west_left"/>  </vehicle>
    <vehicle id="right_54" type="2" depart="495" > <route edges="west_right east_right"/> </vehicle>
    <vehicle id="left_55" type="1" depart="495"> <route edges="east_left west_left"/>  </vehicle>
    <vehicle id="right_56" type="2" depart="503" > <route edges="west_right east_right"/> </vehicle>
    <vehicle id="left_57" type="1" depart="503"> <route edges="east_left west_left"/>  </vehicle>
    <vehicle id="right_58" type="2" depart="511" > <route edges="west_right east_right"/> </vehicle>
    <vehicle id="left_59" type="1" depart="511"> <route edges="east_left west_left"/>  </vehicle>
    <vehicle id="right_60" type="2" depart="519" > <route edges="west_right east_right"/> </vehicle>
    <vehicle id="left_61" type="1" depart="519"> <route edges="east_left west_left"/>  </vehicle>
    <vehicle id="right_62" type="2" depart="527" > <route edges="west_right east_right"/> </vehicle>
    <vehicle id="left_63" type="1" depart="527"> <route edges="east_left west_left"/>  </vehicle>
    <vehicle id="right_64" type="2" depart="535" > <route edges="west_right east_right"/> </vehicle>
    <vehicle id="left_65" type="1" depart="535"> <route edges="east_left west_left"/>  </vehicle>
    <vehicle id="right_66" type="2" depart="543" > <route edges="west_right east_right"/> </vehicle>
    <vehicle id="left_67" type="1" depart="543"> <route edges="east_left west_left"/>  </vehicle>
    <vehicle id="right_68" type="2" depart="551" > <route edges="west_right east_right"/> </vehicle>
    <vehicle id="right_69" type="2" depart="805" > <route edges="west_right east_right"/> </vehicle>
    <vehicle id="left_70" type="1" depart="805"> <route edges="east_left west_left"/>  </vehicle>
    <vehicle id="down_71" type="0" depart="805">  <route edges="north_down south_down"/> </vehicle>
    <vehicle id="leftEmergency_72" type="Emergency" depart="805"> <route edges="east_left west_left"/>  </vehicle>
    <vehicle id="right_73" type="2" depart="811" > <route edges="west_right east_right"/> </vehicle>
    <vehicle id="left_74" type="1" depart="811"> <route edges="east_left west_left"/>  </vehicle>
    <vehicle id="down_75" type="0" depart="811">  <route edges="north_down south_down"/> </vehicle>
    <vehicle id="leftEmergency_76" type="Emergency" depart="811"> <route edges="east_left west_left"/>  </vehicle>
    <vehicle id="right_77" type="2" depart="817" > <route edges="west_right east_right"/> </vehicle>
    <vehicle id="left_78" type="1" depart="817"> <route edges="east_left west_left"/>  </vehicle>
    <vehicle id="down_79" type="0" depart="817">  <route edges="north_down south_down"/> </vehicle>
    <vehicle id="right_80" type="2" depart="823" > <route edges="west_right east_right"/> </vehicle>
    <vehicle id="left_81" type="1" depart="823"> <route edges="east_left west_left"/>  </vehicle>
    <vehicle id="down_82" type="0" depart="823">  <route edges="north_down south_down"/> </vehicle>
    <vehicle id="right_83" type="2" depart="829" > <route edges="west_right east_right"/> </vehicle>
    <vehicle id="left_84" type="1" depart="829"> <route edges="east_left west_left"/>  </vehicle>
    <vehicle id="down_85" type="0" depart="829">  <route edges="north_down south_down"/> </vehicle>
    <vehicle id="right_86" type="2" depart="835" > <route edges="west_right east_right"/> </vehicle>
    <vehicle id="left_87" type="1" depart="835"> <route edges="east_left west_left"/>  </vehicle>
    <vehicle id="down_88" type="0" depart="835">  <route edges="north_down south_down"/> </vehicle>
    <vehicle id="right_89" type="2" depart="841" > <route edges="west_right east_right"/> </vehicle>
    <vehicle id="left_90" type="1" depart="841"> <route edges="east_left west_left"/>  </vehicle>
    <vehicle id="down_91" type="0" depart="841">  <route edges="north_down south_down"/> </vehicle>
    <vehicle id="right_92" type="2" depart="847" > <route edges="west_right east_right"/> </vehicle>
    <vehicle id="left_93" type="1" depart="847"> <route edges="east_left west_left"/>  </vehicle>
    <vehicle id="down_94" type="0" depart="847">  <route edges="north_down south_down"/> </vehicle>
    <vehicle id="right_95" type="2" depart="853" > <route edges="west_right east_right"/> </vehicle>
    <vehicle id="left_96" type="1" depart="853"> <route edges="east_left west_left"/>  </vehicle>
    <vehicle id="down_97" type="0" depart="853">  <route edges="north_down south_down"/> </vehicle>
    <vehicle id="right_98" type="2" depart="859" > <route edges="west_right east_right"/> </vehicle>
    <vehicle id="left_99" type="1" depart="859"> <route edges="east_left west_left"/>  </vehicle>
    <vehicle id="down_100" type="0" depart="859">  <route edges="north_down south_down"/> </vehicle>
    <vehicle id="right_101" type="2" depart="865" > <route edges="west_right east_right"/> </vehicle>
    <vehicle id="left_102" type="1" depart="865"> <route edges="east_left west_left"/>  </vehicle>
    <vehicle id="down_103" type="0" depart="865">  <route edges="north_down south_down"/> </vehicle>
    <vehicle id="right_104" type="2" depart="871" > <route edges="west_right east_right"/> </vehicle>
    <vehicle id="left_105" type="1" depart="871"> <route edges="east_left west_left"/>  </vehicle>
    <vehicle id="down_106" type="0" depart="871">  <route edges="north_down south_down"/> </vehicle>
    <vehicle id="right_107" type="2" depart="877" > <route edges="west_right east_right"/> </vehicle>
    <vehicle id="left_108" type="1" depart="877"> <route edges="east_left west_left"/>  </vehicle>
    <vehicle id="down_109" type="0" depart="877">  <route edges="north_down south_down"/> </vehicle>
    <vehicle id="right_110" type="2" depart="883" > <route edges="west_right east_right"/> </vehicle>
    <vehicle id="left_111" type="1" depart="883"> <route edges="east_left west_left"/>  </vehicle>
    <vehicle id="right_112" type="2" depart="889" > <route edges="west_right east_right"/> </vehicle>
    <vehicle id="left_113" type="1" depart="889"> <route edges="east_left west_left"/>  </vehicle>
    <vehicle id="right_114" type="2" depart="895" > <route edges="west_right east_right"/> </vehicle>
    <vehicle id="left_115" type="1" depart="895"> <route edges="east_left west_left"/>  </vehicle>
    <vehicle id="right_116" type="2" depart="901" > <route edges="west_right east_right"/> </vehicle>
    <vehicle id="left_117" type="1" depart="901"> <route edges="east_left west_left"/>  </vehicle>
    <vehicle id="right_118" type="2" depart="907" > <route edges="west_right east_right"/> </vehicle>
    <vehicle id="left_119" type="1" depart="907"> <route edges="east_left west_left"/>  </vehicle>
    <vehicle id="right_120" type="2" depart="913" > <route edges="west_right east_right"/> </vehicle>
    <vehicle id="left_121" type="1" depart="913"> <route edges="east_left west_left"/>  </vehicle>
    <vehicle id="right_122" type="2" depart="919" > <route edges="west_right east_right"/> </vehicle>
    <vehicle id="left_123" type="1" depart="919"> <route edges="east_left west_left"/>  </vehicle>
    <vehicle id="right_124" type="2" depart="925" > <route edges="west_right east_right"/> </vehicle>
    <vehicle id="left_125" type="1" depart="925"> <route edges="east_left west_left"/>  </vehicle>
    <vehicle id="right_126" type="2" depart="931" > <route edges="west_right east_right"/> </vehicle>
    <vehicle id="left_127" type="1" depart="931"> <route edges="east_left west_left"/>  </vehicle>
    <vehicle id="right_128" type="2" depart="937" > <route edges="west_right east_right"/> </vehicle>
    <vehicle id="left_129" type="1" depart="937"> <route edges="east_left west_left"/>  </vehicle>
    <vehicle id="right_130" type="2" depart="943" > <route edges="west_right east_right"/> </vehicle>
    <vehicle id="left_131" type="1" depart="943"> <route edges="east_left west_left"/>  </vehicle>
    <vehicle id="right_132" type="2" depart="949" > <route edges="west_right east_right"/> </vehicle>
    <vehicle id="left_133" type="1" depart="949"> <route edges="east_left west_left"/>  </vehicle>
    <vehicle id="right_134" type="2" depart="955" > <route edges="west_right east_right"/> </vehicle>
    <vehicle id="left_135" type="1" depart="955"> <route edges="east_left west_left"/>  </vehicle>
    <vehicle id="right_136" type="2" depart="961" > <route edges="west_right east_right"/> </vehicle>
    <vehicle id="left_137" type="1" depart="961"> <route edges="east_left west_left"/>  </vehicle>
    <vehicle id="right_138" type="2" depart="967" > <route edges="west_right east_right"/> </vehicle>
    <vehicle id="left_139" type="1" depart="967"> <route edges="east_left west_left"/>  </vehicle>
    <vehicle id="right_140" type="2" depart="973" > <route edges="west_right east_right"/> </vehicle>
    <vehicle id="right_141" type="2" depart="1203" > <route edges="west_right east_right"/> </vehicle>
    <vehicle id="left_142" type="1" depart="1203"> <route edges="east_left west_left"/>  </vehicle>
    <vehicle id="down_143" type="0" depart="1203">  <route edges="north_down south_down"/> </vehicle>
    <vehicle id="leftEmergency_144" type="Emergency" depart="1203"> <route edges="east_left west_left"/>  </vehicle>
    <vehicle id="right_145" type="2" depart="1207" > <route edges="west_right east_right"/> </vehicle>
    <vehicle id="left_146" type="1" depart="1207"> <route edges="east_left west_left"/>  </vehicle>
    <vehicle id="down_147" type="0" depart="1207">  <route edges="north_down south_down"/> </vehicle>
    <vehicle id="leftEmergency_148" type="Emergency" depart="1207"> <route edges="east_left west_left"/>  </vehicle>
    <vehicle id="right_149" type="2" depart="1211" > <route edges="west_right east_right"/> </vehicle>
    <vehicle id="left_150" type="1" depart="1211"> <route edges="east_left west_left"/>  </vehicle>
    <vehicle id="down_151" type="0" depart="1211">  <route edges="north_down south_down"/> </vehicle>
    <vehicle id="right_152" type="2" depart="1215" > <route edges="west_right east_right"/> </vehicle>
    <vehicle id="left_153" type="1" depart="1215"> <route edges="east_left west_left"/>  </vehicle>
    <vehicle id="down_154" type="0" depart="1215">  <route edges="north_down south_down"/> </vehicle>
    <vehicle id="right_155" type="2" depart="1219" > <route edges="west_right east_right"/> </vehicle>
    <vehicle id="left_156" type="1" depart="1219"> <route edges="east_left west_left"/>  </vehicle>
    <vehicle id="down_157" type="0" depart="1219">  <route edges="north_down south_down"/> </vehicle>
    <vehicle id="right_158" type="2" depart="1223" > <route edges="west_right east_right"/> </vehicle>
    <vehicle id="left_159" type="1" depart="1223"> <route edges="east_left west_left"/>  </vehicle>
    <vehicle id="down_160" type="0" depart="1223">  <route edges="north_down south_down"/> </vehicle>
    <vehicle id="right_161" type="2" depart="1227" > <route edges="west_right east_right"/> </vehicle>
    <vehicle id="left_162" type="1" depart="1227"> <route edges="east_left west_left"/>  </vehicle>
    <vehicle id="down_163" type="0" depart="1227">  <route edges="north_down south_down"/> </vehicle>
    <vehicle id="right_164" type="2" depart="1231" > <route edges="west_right east_right"/> </vehicle>
    <vehicle id="left_165" type="1" depart="1231"> <route edges="east_left west_left"/>  </vehicle>
    <vehicle id="down_166" type="0" depart="1231">  <route edges="north_down south_down"/> </vehicle>
    <vehicle id="right_167" type="2" depart="1235" > <route edges="west_right east_right"/> </vehicle>
    <vehicle id="left_168" type="1" depart="1235"> <route edges="east_left west_left"/>  </vehicle>
    <vehicle id="down_169" type="0" depart="1235">  <route edges="north_down south_down"/> </vehicle>
    <vehicle id="right_170" type="2" depart="1239" > <route edges="west_right east_right"/> </vehicle>
    <vehicle id="left_171" type="1" depart="1239"> <route edges="east_left west_left"/>  </vehicle>
    <vehicle id="down_172" type="0" depart="1239">  <route edges="north_down south_down"/> </vehicle>
    <vehicle id="right_173" type="2" depart="1243" > <route edges="west_right east_right"/> </vehicle>
    <vehicle id="left_174" type="1" depart="1243"> <route edges="east_left west_left"/>  </vehicle>
    <vehicle id="down_175" type="0" depart="1243">  <route edges="north_down south_down"/> </vehicle>
    <vehicle id="right_176" type="2" depart="1247" > <route edges="west_right east_right"/> </vehicle>
    <vehicle id="left_177" type="1" depart="1247"> <route edges="east_left west_left"/>  </vehicle>
    <vehicle id="down_178" type="0" depart="1247">  <route edges="north_down south_down"/> </vehicle>
    <vehicle id="right_179" type="2" depart="1251" > <route edges="west_right east_right"/> </vehicle>
    <vehicle id="left_180" type="1" depart="1251"> <route edges="east_left west_left"/>  </vehicle>
    <vehicle id="down_181" type="0" depart="1251">  <route edges="north_down south_down"/> </vehicle>
    <vehicle id="right_182" type="2" depart="1255" > <route edges="west_right east_right"/> </vehicle>
    <vehicle id="left_183" type="1" depart="1255"> <route edges="east_left west_left"/>  </vehicle>
    <vehicle id="down_184" type="0" depart="1255">  <route edges="north_down south_down"/> </vehicle>
    <vehicle id="right_185" type="2" depart="1259" > <route edges="west_right east_right"/> </vehicle>
    <vehicle id="left_186" type="1" depart="1259"> <route edges="east_left west_left"/>  </vehicle>
    <vehicle id="down_187" type="0" depart="1259">  <route edges="north_down south_down"/> </vehicle>
    <vehicle id="right_188" type="2" depart="1263" > <route edges="west_right east_right"/> </vehicle>
    <vehicle id="left_189" type="1" depart="1263"> <route edges="east_left west_left"/>  </vehicle>
    <vehicle id="down_190" type="0" depart="1263">  <route edges="north_down south_down"/> </vehicle>
    <vehicle id="right_191" type="2" depart="1267" > <route edges="west_right east_right"/> </vehicle>
    <vehicle id="left_192" type="1" depart="1267"> <route edges="east_left west_left"/>  </vehicle>
    <vehicle id="down_193" type="0" depart="1267">  <route edges="north_down south_down"/> </vehicle>
    <vehicle id="right_194" type="2" depart="1271" > <route edges="west_right east_right"/> </vehicle>
    <vehicle id="left_195" type="1" depart="1271"> <route edges="east_left west_left"/>  </vehicle>
    <vehicle id="down_196" type="0" depart="1271">  <route edges="north_down south_down"/> </vehicle>
    <vehicle id="right_197" type="2" depart="1275" > <route edges="west_right east_right"/> </vehicle>
    <vehicle id="left_198" type="1" depart="1275"> <route edges="east_left west_left"/>  </vehicle>
    <vehicle id="right_199" type="2" depart="1279" > <route edges="west_right east_right"/> </vehicle>
    <vehicle id="left_200" type="1" depart="1279"> <route edges="east_left west_left"/>  </vehicle>
    <vehicle id="right_201" type="2" depart="1283" > <route edges="west_right east_right"/> </vehicle>
    <vehicle id="left_202" type="1" depart="1283"> <route edges="east_left west_left"/>  </vehicle>
    <vehicle id="right_203" type="2" depart="1287" > <route edges="west_right east_right"/> </vehicle>
    <vehicle id="left_204" type="1" depart="1287"> <route edges="east_left west_left"/>  </vehicle>
    <vehicle id="right_205" type="2" depart="1291" > <route edges="west_right east_right"/> </vehicle>
    <vehicle id="left_206" type="1" depart="1291"> <route edges="east_left west_left"/>  </vehicle>
    <vehicle id="right_207" type="2" depart="1295" > <route edges="west_right east_right"/> </vehicle>
    <vehicle id="left_208" type="1" depart="1295"> <route edges="east_left west_left"/>  </vehicle>
    <vehicle id="right_209" type="2" depart="1299" > <route edges="west_right east_right"/> </vehicle>
    <vehicle id="left_210" type="1" depart="1299"> <route edges="east_left west_left"/>  </vehicle>
    <vehicle id="right_211" type="2" depart="1303" > <route edges="west_right east_right"/> </vehicle>
    <vehicle id="left_212" type="1" depart="1303"> <route edges="east_left west_left"/>  </vehicle>
    <vehicle id="right_213" type="2" depart="1307" > <route edges="west_right east_right"/> </vehicle>
    <vehicle id="left_214" type="1" depart="1307"> <route edges="east_left west_left"/>  </vehicle>
    <vehicle id="right_215" type="2" depart="1311" > <route edges="west_right east_right"/> </vehicle>
    <vehicle id="left_216" type="1" depart="1311"> <route edges="east_left west_left"/>  </vehicle>
    <vehicle id="right_217" type="2" depart="1315" > <route edges="west_right east_right"/> </vehicle>
    <vehicle id="left_218" type="1" depart="1315"> <route edges="east_left west_left"/>  </vehicle>
    <vehicle id="right_219" type="2" depart="1319" > <route edges="west_right east_right"/> </vehicle>
    <vehicle id="left_220" type="1" depart="1319"> <route edges="east_left west_left"/>  </vehicle>
    <vehicle id="right_221" type="2" depart="1323" > <route edges="west_right east_right"/> </vehicle>
    <vehicle id="left_222" type="1" depart="1323"> <route edges="east_left west_left"/>  </vehicle>
    <vehicle id="right_223" type="2" depart="1327" > <route edges="west_right east_right"/> </vehicle>
    <vehicle id="left_224" type="1" depart="1327"> <route edges="east_left west_left"/>  </vehicle>
    <vehicle id="right_225" type="2" depart="1331" > <route edges="west_right east_right"/> </vehicle>
    <vehicle id="left_226" type="1" depart="1331"> <route edges="east_left west_left"/>  </vehicle>
    <vehicle id="right_227" type="2" depart="1335" > <route edges="west_right east_right"/> </vehicle>
    <vehicle id="left_228" type="1" depart="1335"> <route edges="east_left west_left"/>  </vehicle>
    <vehicle id="right_229" type="2" depart="1339" > <route edges="west_right east_right"/> </vehicle>
    <vehicle id="left_230" type="1" depart="1339"> <route edges="east_left west_left"/>  </vehicle>
    <vehicle id="right_231" type="2" depart="1343" > <route edges="west_right east_right"/> </vehicle>
    <vehicle id="left_232" type="1" depart="1343"> <route edges="east_left west_left"/>  </vehicle>
    <vehicle id="right_233" type="2" depart="1347" > <route edges="west_right east_right"/> </vehicle>
    <vehicle id="left_234" type="1" depart="1347"> <route edges="east_left west_left"/>  </vehicle>
    <vehicle id="right_235" type="2" depart="1351" > <route edges="west_right east_right"/> </vehicle>
    <vehicle id="right_236" type="2" depart="1602" > <route edges="west_right east_right"/> </vehicle>
    <vehicle id="left_237" type="1" depart="1602"> <route edges="east_left west_left"/>  </vehicle>
    <vehicle id="down_238" type="0" depart="1602">  <route edges="north_down south_down"/> </vehicle>
    <vehicle id="leftEmergency_239" type="Emergency" depart="1602"> <route edges="east_left west_left"/>  </vehicle>
    <vehicle id="right_240" type="2" depart="1605" > <route edges="west_right east_right"/> </vehicle>
    <vehicle id="left_241" type="1" depart="1605"> <route edges="east_left west_left"/>  </vehicle>
    <vehicle id="down_242" type="0" depart="1605">  <route edges="north_down south_down"/> </vehicle>
    <vehicle id="leftEmergency_243" type="Emergency" depart="1605"> <route edges="east_left west_left"/>  </vehicle>
    <vehicle id="right_244" type="2" depart="1608" > <route edges="west_right east_right"/> </vehicle>
    <vehicle id="left_245" type="1" depart="1608"> <route edges="east_left west_left"/>  </vehicle>
    <vehicle id="down_246" type="0" depart="1608">  <route edges="north_down south_down"/> </vehicle>
    <vehicle id="right_247" type="2" depart="1611" > <route edges="west_right east_right"/> </vehicle>
    <vehicle id="left_248" type="1" depart="1611"> <route edges="east_left west_left"/>  </vehicle>
    <vehicle id="down_249" type="0" depart="1611">  <route edges="north_down south_down"/> </vehicle>
    <vehicle id="right_250" type="2" depart="1614" > <route edges="west_right east_right"/> </vehicle>
    <vehicle id="left_251" type="1" depart="1614"> <route edges="east_left west_left"/>  </vehicle>
    <vehicle id="down_252" type="0" depart="1614">  <route edges="north_down south_down"/> </vehicle>
    <vehicle id="right_253" type="2" depart="1617" > <route edges="west_right east_right"/> </vehicle>
    <vehicle id="left_254" type="1" depart="1617"> <route edges="east_left west_left"/>  </vehicle>
    <vehicle id="down_255" type="0" depart="1617">  <route edges="north_down south_down"/> </vehicle>
    <vehicle id="right_256" type="2" depart="1620" > <route edges="west_right east_right"/> </vehicle>
    <vehicle id="left_257" type="1" depart="1620"> <route edges="east_left west_left"/>  </vehicle>
    <vehicle id="down_258" type="0" depart="1620">  <route edges="north_down south_down"/> </vehicle>
    <vehicle id="right_259" type="2" depart="1623" > <route edges="west_right east_right"/> </vehicle>
    <vehicle id="left_260" type="1" depart="1623"> <route edges="east_left west_left"/>  </vehicle>
    <vehicle id="down_261" type="0" depart="1623">  <route edges="north_down south_down"/> </vehicle>
    <vehicle id="right_262" type="2" depart="1626" > <route edges="west_right east_right"/> </vehicle>
    <vehicle id="left_263" type="1" depart="1626"> <route edges="east_left west_left"/>  </vehicle>
    <vehicle id="down_264" type="0" depart="1626">  <route edges="north_down south_down"/> </vehicle>
    <vehicle id="right_265" type="2" depart="1629" > <route edges="west_right east_right"/> </vehicle>
    <vehicle id="left_266" type="1" depart="1629"> <route edges="east_left west_left"/>  </vehicle>
    <vehicle id="down_267" type="0" depart="1629">  <route edges="north_down south_down"/> </vehicle>
    <vehicle id="right_268" type="2" depart="1632" > <route edges="west_right east_right"/> </vehicle>
    <vehicle id="left_269" type="1" depart="1632"> <route edges="east_left west_left"/>  </vehicle>
    <vehicle id="down_270" type="0" depart="1632">  <route edges="north_down south_down"/> </vehicle>
    <vehicle id="right_271" type="2" depart="1635" > <route edges="west_right east_right"/> </vehicle>
    <vehicle id="left_272" type="1" depart="1635"> <route edges="east_left west_left"/>  </vehicle>
    <vehicle id="down_273" type="0" depart="1635">  <route edges="north_down south_down"/> </vehicle>
    <vehicle id="right_274" type="2" depart="1638" > <route edges="west_right east_right"/> </vehicle>
    <vehicle id="left_275" type="1" depart="1638"> <route edges="east_left west_left"/>  </vehicle>
    <vehicle id="down_276" type="0" depart="1638">  <route edges="north_down south_down"/> </vehicle>
    <vehicle id="right_277" type="2" depart="1641" > <route edges="west_right east_right"/> </vehicle>
    <vehicle id="left_278" type="1" depart="1641"> <route edges="east_left west_left"/>  </vehicle>
    <vehicle id="down_279" type="0" depart="1641">  <route edges="north_down south_down"/> </vehicle>
    <vehicle id="right_280" type="2" depart="1644" > <route edges="west_right east_right"/> </vehicle>
    <vehicle id="left_281" type="1" depart="1644"> <route edges="east_left west_left"/>  </vehicle>
    <vehicle id="down_282" type="0" depart="1644">  <route edges="north_down south_down"/> </vehicle>
    <vehicle id="right_283" type="2" depart="1647" > <route edges="west_right east_right"/> </vehicle>
    <vehicle id="left_284" type="1" depart="1647"> <route edges="east_left west_left"/>  </vehicle>
    <vehicle id="down_285" type="0" depart="1647">  <route edges="north_down south_down"/> </vehicle>
    <vehicle id="right_286" type="2" depart="1650" > <route edges="west_right east_right"/> </vehicle>
    <vehicle id="left_287" type="1" depart="1650"> <route edges="east_left west_left"/>  </vehicle>
    <vehicle id="down_288" type="0" depart="1650">  <route edges="north_down south_down"/> </vehicle>
    <vehicle id="right_289" type="2" depart="1653" > <route edges="west_right east_right"/> </vehicle>
    <vehicle id="left_290" type="1" depart="1653"> <route edges="east_left west_left"/>  </vehicle>