<routes>
        <vType id="2" length="4.00" minGap="2.50" maxSpeed="14.00" guiShape="passenger" accel="2" decel="4.5" sigma="0.5" />
        <vType id="1" length="3.00" minGap="2.50" maxSpeed="14.00" guiShape="passenger" accel="2" decel="4.5" sigma="0.5" />
        <vType id="0" length="5.00" minGap="2.50" maxSpeed="14.00" guiShape="passenger" accel="2" decel="4.5" sigma="0.5" />
        
    <vehicle id="left_0" type="1" depart="0"> <route edges="east_left west_left"/>  </vehicle>
    <vehicle id="right_1" type="2" depart="3" > <route edges="west_right east_right"/> </vehicle>
    <vehicle id="right_2" type="2" depart="4" > <route edges="west_right east_right"/> </vehicle>
    <vehicle id="left_3" type="1" depart="6"> <route edges="east_left west_left"/>  </vehicle>
    <vehicle id="left_4" type="1" depart="22"> <route edges="east_left west_left"/>  </vehicle>
    <vehicle id="left_5" type="1" depart="33"> <route edges="east_left west_left"/>  </vehicle>
    <vehicle id="left_6" type="1" depart="41"> <route edges="east_left west_left"/>  </vehicle>
    <vehicle id="right_7" type="2" depart="42" > <route edges="west_right east_right"/> </vehicle>
    <vehicle id="down_8" type="0" depart="89">  <route edges="north_down south_down"/> </vehicle>
    <vehicle id="down_9" type="0" depart="96">  <route edges="north_down south_down"/> </vehicle>
    <vehicle id="right_10" type="2" depart="99" > <route edges="west_right east_right"/> </vehicle>
    <vehicle id="right_11" type="2" depart="108" > <route edges="west_right east_right"/> </vehicle>
    <vehicle id="right_12" type="2" depart="114" > <route edges="west_right east_right"/> </vehicle>
    <vehicle id="down_13" type="0" depart="122">  <route edges="north_down south_down"/> </vehicle>
    <vehicle id="left_14" type="1" depart="131"> <route edges="east_left west_left"/>  </vehicle>
    <vehicle id="left_15" type="1" depart="138"> <route edges="east_left west_left"/>  </vehicle>
    <vehicle id="left_16" type="1" depart="142"> <route edges="east_left west_left"/>  </vehicle>
    <vehicle id="left_17" type="1" depart="160"> <route edges="east_left west_left"/>  </vehicle>
    <vehicle id="left_18" type="1" depart="164"> <route edges="east_left west_left"/>  </vehicle>
    <vehicle id="right_19" type="2" depart="167" > <route edges="west_right east_right"/> </vehicle>
    <vehicle id="right_20" type="2" depart="168" > <route edges="west_right east_right"/> </vehicle>
    <vehicle id="down_21" type="0" depart="172">  <route edges="north_down south_down"/> </vehicle>
    <vehicle id="right_22" type="2" depart="176" > <route edges="west_right east_right"/> </vehicle>
    <vehicle id="right_23" type="2" depart="181" > <route edges="west_right east_right"/> </vehicle>
    <vehicle id="left_24" type="1" depart="196"> <route edges="east_left west_left"/>  </vehicle>
    <vehicle id="left_25" type="1" depart="199"> <route edges="east_left west_left"/>  </vehicle>
    <vehicle id="left_26" type="1" depart="212"> <route edges="east_left west_left"/>  </vehicle>
    <vehicle id="right_27" type="2" depart="228" > <route edges="west_right east_right"/> </vehicle>
    <vehicle id="right_28" type="2" depart="294" > <route edges="west_right east_right"/> </vehicle>
    <vehicle id="down_29" type="0" depart="318">  <route edges="north_down south_down"/> </vehicle>
    <vehicle id="right_30" type="2" depart="322" > <route edges="west_right east_right"/> </vehicle>
    <vehicle id="down_31" type="0" depart="337">  <route edges="north_down south_down"/> </vehicle>
    <vehicle id="right_32" type="2" depart="342" > <route edges="west_right east_right"/> </vehicle>
    <vehicle id="left_33" type="1" depart="344"> <route edges="east_left west_left"/>  </vehicle>
    <vehicle id="down_34" type="0" depart="344">  <route edges="north_down south_down"/> </vehicle>
    <vehicle id="right_35" type="2" depart="375" > <route edges="west_right east_right"/> </vehicle>
    <vehicle id="down_36" type="0" depart="377">  <route edges="north_down south_down"/> </vehicle>
    <vehicle id="left_37" type="1" depart="389"> <route edges="east_left west_left"/>  </vehicle>
    <vehicle id="left_38" type="1" depart="391"> <route edges="east_left west_left"/>  </vehicle>
    <vehicle id="right_39" type="2" depart="395" > <route edges="west_right east_right"/> </vehicle>
    <vehicle id="down_40" type="0" depart="397">  <route edges="north_down south_down"/> </vehicle>
    <vehicle id="down_41" type="0" depart="463">  <route edges="north_down south_down"/> </vehicle>
    <vehicle id="left_42" type="1" depart="469"> <route edges="east_left west_left"/>  </vehicle>
    <vehicle id="left_43" type="1" depart="476"> <route edges="east_left west_left"/>  </vehicle>
    <vehicle id="right_44" type="2" depart="536" > <route edges="west_right east_right"/> </vehicle>
    <vehicle id="left_45" type="1" depart="552"> <route edges="east_left west_left"/>  </vehicle>
    <vehicle id="left_46" type="1" depart="578"> <route edges="east_left west_left"/>  </vehicle>
    <vehicle id="left_47" type="1" depart="579"> <route edges="east_left west_left"/>  </vehicle>
    <vehicle id="left_48" type="1" depart="602"> <route edges="east_left west_left"/>  </vehicle>
    <vehicle id="right_49" type="2" depart="612" > <route edges="west_right east_right"/> </vehicle>
    <vehicle id="down_50" type="0" depart="624">  <route edges="north_down south_down"/> </vehicle>
    <vehicle id="left_51" type="1" depart="646"> <route edges="east_left west_left"/>  </vehicle>
    <vehicle id="down_52" type="0" depart="653">  <route edges="north_down south_down"/> </vehicle>
    <vehicle id="right_53" type="2" depart="654" > <route edges="west_right east_right"/> </vehicle>
    <vehicle id="left_54" type="1" depart="659"> <route edges="east_left west_left"/>  </vehicle>
    <vehicle id="left_55" type="1" depart="683"> <route edges="east_left west_left"/>  </vehicle>
    <vehicle id="right_56" type="2" depart="704" > <route edges="west_right east_right"/> </vehicle>
    <vehicle id="down_57" type="0" depart="706">  <route edges="north_down south_down"/> </vehicle>
    <vehicle id="left_58" type="1" depart="707"> <route edges="east_left west_left"/>  </vehicle>
    <vehicle id="down_59" type="0" depart="708">  <route edges="north_down south_down"/> </vehicle>
    <vehicle id="down_60" type="0" depart="717">  <route edges="north_down south_down"/> </vehicle>
    <vehicle id="right_61" type="2" depart="724" > <route edges="west_right east_right"/> </vehicle>
    <vehicle id="left_62" type="1" depart="740"> <route edges="east_left west_left"/>  </vehicle>
    <vehicle id="left_63" type="1" depart="743"> <route edges="east_left west_left"/>  </vehicle>
    <vehicle id="down_64" type="0" depart="776">  <route edges="north_down south_down"/> </vehicle>
    <vehicle id="down_65" type="0" depart="780">  <route edges="north_down south_down"/> </vehicle>
    <vehicle id="down_66" type="0" depart="808">  <route edges="north_down south_down"/> </vehicle>
    <vehicle id="left_67" type="1" depart="812"> <route edges="east_left west_left"/>  </vehicle>
    <vehicle id="down_68" type="0" depart="838">  <route edges="north_down south_down"/> </vehicle>
    <vehicle id="down_69" type="0" depart="847">  <route edges="north_down south_down"/> </vehicle>
    <vehicle id="left_70" type="1" depart="854"> <route edges="east_left west_left"/>  </vehicle>
    <vehicle id="right_71" type="2" depart="856" > <route edges="west_right east_right"/> </vehicle>
    <vehicle id="left_72" type="1" depart="862"> <route edges="east_left west_left"/>  </vehicle>
    <vehicle id="right_73" type="2" depart="879" > <route edges="west_right east_right"/> </vehicle>
    <vehicle id="down_74" type="0" depart="911">  <route edges="north_down south_down"/> </vehicle>
    <vehicle id="right_75" type="2" depart="916" > <route edges="west_right east_right"/> </vehicle>
    <vehicle id="left_76" type="1" depart="918"> <route edges="east_left west_left"/>  </vehicle>
    <vehicle id="right_77" type="2" depart="939" > <route edges="west_right east_right"/> </vehicle>
    <vehicle id="down_78" type="0" depart="941">  <route edges="north_down south_down"/> </vehicle>
    <vehicle id="left_79" type="1" depart="945"> <route edges="east_left west_left"/>  </vehicle>
    <vehicle id="right_80" type="2" depart="950" > <route edges="west_right east_right"/> </vehicle>
    <vehicle id="down_81" type="0" depart="974">  <route edges="north_down south_down"/> </vehicle>
    <vehicle id="left_82" type="1" depart="977"> <route edges="east_left west_left"/>  </vehicle>
    <vehicle id="right_83" type="2" depart="989" > <route edges="west_right east_right"/> </vehicle>
    <vehicle id="down_84" type="0" depart="996">  <route edges="north_down south_down"/> </vehicle>
    <vehicle id="left_85" type="1" depart="1006"> <route edges="east_left west_left"/>  </vehicle>
    <vehicle id="left_86" type="1" depart="1014"> <route edges="east_left west_left"/>  </vehicle>
    <vehicle id="right_87" type="2" depart="1047" > <route edges="west_right east_right"/> </vehicle>
    <vehicle id="right_88" type="2" depart="1061" > <route edges="west_right east_right"/> </vehicle>
    <vehicle id="right_89" type="2" depart="1068" > <route edges="west_right east_right"/> </vehicle>
    <vehicle id="right_90" type="2" depart="1069" > <route edges="west_right east_right"/> </vehicle>
    <vehicle id="left_91" type="1" depart="1070"> <route edges="east_left west_left"/>  </vehicle>
    <vehicle id="left_92" type="1" depart="1104"> <route edges="east_left west_left"/>  </vehicle>
    <vehicle id="down_93" type="0" depart="1109">  <route edges="north_down south_down"/> </vehicle>
    <vehicle id="left_94" type="1" depart="1124"> <route edges="east_left west_left"/>  </vehicle>
    <vehicle id="left_95" type="1" depart="1135"> <route edges="east_left west_left"/>  </vehicle>
    <vehicle id="left_96" type="1" depart="1172"> <route edges="east_left west_left"/>  </vehicle>
    <vehicle id="right_97" type="2" depart="1208" > <route edges="west_right east_right"/> </vehicle>
    <vehicle id="right_98" type="2" depart="1212" > <route edges="west_right east_right"/> </vehicle>
    <vehicle id="left_99" type="1" depart="1218"> <route edges="east_left west_left"/>  </vehicle>
    <vehicle id="left_100" type="1" depart="1237"> <route edges="east_left west_left"/>  </vehicle>
    <vehicle id="left_101" type="1" depart="1246"> <route edges="east_left west_left"/>  </vehicle>
    <vehicle id="left_102" type="1" depart="1255"> <route edges="east_left west_left"/>  </vehicle>
    <vehicle id="right_103" type="2" depart="1267" > <route edges="west_right east_right"/> </vehicle>
    <vehicle id="left_104" type="1" depart="1281"> <route edges="east_left west_left"/>  </vehicle>
    <vehicle id="right_105" type="2" depart="1289" > <route edges="west_right east_right"/> </vehicle>
    <vehicle id="down_106" type="0" depart="1317">  <route edges="north_down south_down"/> </vehicle>
    <vehicle id="right_107" type="2" depart="1322" > <route edges="west_right east_right"/> </vehicle>
    <vehicle id="left_108" type="1" depart="1344"> <route edges="east_left west_left"/>  </vehicle>
    <vehicle id="right_109" type="2" depart="1357" > <route edges="west_right east_right"/> </vehicle>
    <vehicle id="right_110" type="2" depart="1367" > <route edges="west_right east_right"/> </vehicle>
    <vehicle id="right_111" type="2" depart="1384" > <route edges="west_right east_right"/> </vehicle>
    <vehicle id="down_112" type="0" depart="1402">  <route edges="north_down south_down"/> </vehicle>
    <vehicle id="right_113" type="2" depart="1420" > <route edges="west_right east_right"/> </vehicle>
    <vehicle id="right_114" type="2" depart="1433" > <route edges="west_right east_right"/> </vehicle>
    <vehicle id="left_115" type="1" depart="1441"> <route edges="east_left west_left"/>  </vehicle>
    <vehicle id="right_116" type="2" depart="1450" > <route edges="west_right east_right"/> </vehicle>
    <vehicle id="down_117" type="0" depart="1451">  <route edges="north_down south_down"/> </vehicle>
    <vehicle id="right_118" type="2" depart="1453" > <route edges="west_right east_right"/> </vehicle>
    <vehicle id="left_119" type="1" depart="1454"> <route edges="east_left west_left"/>  </vehicle>
    <vehicle id="down_120" type="0" depart="1463">  <route edges="north_down south_down"/> </vehicle>
    <vehicle id="down_121" type="0" depart="1483">  <route edges="north_down south_down"/> </vehicle>
    <vehicle id="right_122" type="2" depart="1499" > <route edges="west_right east_right"/> </vehicle>
    <vehicle id="left_123" type="1" depart="1500"> <route edges="east_left west_left"/>  </vehicle>
    <vehicle id="down_124" type="0" depart="1533">  <route edges="north_down south_down"/> </vehicle>
    <vehicle id="left_125" type="1" depart="1547"> <route edges="east_left west_left"/>  </vehicle>
    <vehicle id="left_126" type="1" depart="1562"> <route edges="east_left west_left"/>  </vehicle>
    <vehicle id="down_127" type="0" depart="1568">  <route edges="north_down south_down"/> </vehicle>
    <vehicle id="right_128" type="2" depart="1570" > <route edges="west_right east_right"/> </vehicle>
    <vehicle id="left_129" type="1" depart="1573"> <route edges="east_left west_left"/>  </vehicle>
    <vehicle id="down_130" type="0" depart="1576">  <route edges="north_down south_down"/> </vehicle>
    <vehicle id="down_131" type="0" depart="1578">  <route edges="north_down south_down"/> </vehicle>
    <vehicle id="left_132" type="1" depart="1583"> <route edges="east_left west_left"/>  </vehicle>
    <vehicle id="right_133" type="2" depart="1589" > <route edges="west_right east_right"/> </vehicle>
    <vehicle id="right_134" type="2" depart="1612" > <route edges="west_right east_right"/> </vehicle>
    <vehicle id="down_135" type="0" depart="1612">  <route edges="north_down south_down"/> </vehicle>
    <vehicle id="down_136" type="0" depart="1645">  <route edges="north_down south_down"/> </vehicle>
    <vehicle id="down_137" type="0" depart="1669">  <route edges="north_down south_down"/> </vehicle>
    <vehicle id="right_138" type="2" depart="1670" > <route edges="west_right east_right"/> </vehicle>
    <vehicle id="left_139" type="1" depart="1673"> <route edges="east_left west_left"/>  </vehicle>
    <vehicle id="down_140" type="0" depart="1675">  <route edges="north_down south_down"/> </vehicle>
    <vehicle id="left_141" type="1" depart="1677"> <route edges="east_left west_left"/>  </vehicle>
    <vehicle id="left_142" type="1" depart="1690"> <route edges="east_left west_left"/>  </vehicle>
    <vehicle id="down_143" type="0" depart="1694">  <route edges="north_down south_down"/> </vehicle>
    <vehicle id="down_144" type="0" depart="1700">  <route edges="north_down south_down"/> </vehicle>
    <vehicle id="down_145" type="0" depart="1707">  <route edges="north_down south_down"/> </vehicle>
    <vehicle id="left_146" type="1" depart="1725"> <route edges="east_left west_left"/>  </vehicle>
    <vehicle id="down_147" type="0" depart="1742">  <route edges="north_down south_down"/> </vehicle>
    <vehicle id="left_148" type="1" depart="1748"> <route edges="east_left west_left"/>  </vehicle>
    <vehicle id="down_149" type="0" depart="1758">  <route edges="north_down south_down"/> </vehicle>
    <vehicle id="right_150" type="2" depart="1785" > <route edges="west_right east_right"/> </vehicle>
    <vehicle id="left_151" type="1" depart="1798"> <route edges="east_left west_left"/>  </vehicle>
    <vehicle id="right_152" type="2" depart="1808" > <route edges="west_right east_right"/> </vehicle>
    <vehicle id="left_153" type="1" depart="1810"> <route edges="east_left west_left"/>  </vehicle>
    <vehicle id="left_154" type="1" depart="1833"> <route edges="east_left west_left"/>  </vehicle>
    <vehicle id="down_155" type="0" depart="1866">  <route edges="north_down south_down"/> </vehicle>
    <vehicle id="left_156" type="1" depart="1867"> <route edges="east_left west_left"/>  </vehicle>
    <vehicle id="down_157" type="0" depart="1874">  <route edges="north_down south_down"/> </vehicle>
    <vehicle id="right_158" type="2" depart="1905" > <route edges="west_right east_right"/> </vehicle>
    <vehicle id="left_159" type="1" depart="1909"> <route edges="east_left west_left"/>  </vehicle>
    <vehicle id="left_160" type="1" depart="1913"> <route edges="east_left west_left"/>  </vehicle>
    <vehicle id="down_161" type="0" depart="1959">  <route edges="north_down south_down"/> </vehicle>
    <vehicle id="down_162" type="0" depart="1969">  <route edges="north_down south_down"/> </vehicle>
    <vehicle id="right_163" type="2" depart="1989" > <route edges="west_right east_right"/> </vehicle>
    <vehicle id="right_164" type="2" depart="2007" > <route edges="west_right east_right"/> </vehicle>
    <vehicle id="left_165" type="1" depart="2017"> <route edges="east_left west_left"/>  </vehicle>
    <vehicle id="left_166" type="1" depart="2031"> <route edges="east_left west_left"/>  </vehicle>
    <vehicle id="left_167" type="1" depart="2066"> <route edges="east_left west_left"/>  </vehicle>
    <vehicle id="left_168" type="1" depart="2078"> <route edges="east_left west_left"/>  </vehicle>
    <vehicle id="left_169" type="1" depart="2083"> <route edges="east_left west_left"/>  </vehicle>
    <vehicle id="left_170" type="1" depart="2101"> <route edges="east_left west_left"/>  </vehicle>
    <vehicle id="right_171" type="2" depart="2118" > <route edges="west_right east_right"/> </vehicle>
    <vehicle id="left_172" type="1" depart="2134"> <route edges="east_left west_left"/>  </vehicle>
    <vehicle id="right_173" type="2" depart="2151" > <route edges="west_right east_right"/> </vehicle>
    <vehicle id="left_174" type="1" depart="2176"> <route edges="east_left west_left"/>  </vehicle>
    <vehicle id="left_175" type="1" depart="2211"> <route edges="east_left west_left"/>  </vehicle>
    <vehicle id="right_176" type="2" depart="2245" > <route edges="west_right east_right"/> </vehicle>
    <vehicle id="down_177" type="0" depart="2250">  <route edges="north_down south_down"/> </vehicle>
    <vehicle id="left_178" type="1" depart="2251"> <route edges="east_left west_left"/>  </vehicle>
    <vehicle id="down_179" type="0" depart="2255">  <route edges="north_down south_down"/> </vehicle>
    <vehicle id="down_180" type="0" depart="2259">  <route edges="north_down south_down"/> </vehicle>
    <vehicle id="right_181" type="2" depart="2269" > <route edges="west_right east_right"/> </vehicle>
    <vehicle id="left_182" type="1" depart="2280"> <route edges="east_left west_left"/>  </vehicle>
    <vehicle id="left_183" type="1" depart="2282"> <route edges="east_left west_left"/>  </vehicle>
    <vehicle id="right_184" type="2" depart="2304" > <route edges="west_right east_right"/> </vehicle>
    <vehicle id="down_185" type="0" depart="2304">  <route edges="north_down south_down"/> </vehicle>
    <vehicle id="down_186" type="0" depart="2312">  <route edges="north_down south_down"/> </vehicle>
    <vehicle id="right_187" type="2" depart="2322" > <route edges="west_right east_right"/> </vehicle>
    <vehicle id="right_188" type="2" depart="2368" > <route edges="west_right east_right"/> </vehicle>
    <vehicle id="down_189" type="0" depart="2371">  <route edges="north_down south_down"/> </vehicle>
    <vehicle id="left_190" type="1" depart="2377"> <route edges="east_left west_left"/>  </vehicle>
    <vehicle id="left_191" type="1" depart="2391"> <route edges="east_left west_left"/>  </vehicle>
    <vehicle id="right_192" type="2" depart="2393" > <route edges="west_right east_right"/> </vehicle>
    <vehicle id="right_193" type="2" depart="2404" > <route edges="west_right east_right"/> </vehicle>
    <vehicle id="right_194" type="2" depart="2405" > <route edges="west_right east_right"/> </vehicle>
    <vehicle id="right_195" type="2" depart="2409" > <route edges="west_right east_right"/> </vehicle>
    <vehicle id="down_196" type="0" depart="2412">  <route edges="north_down south_down"/> </vehicle>
    <vehicle id="left_197" type="1" depart="2414"> <route edges="east_left west_left"/>  </vehicle>
    <vehicle id="right_198" type="2" depart="2434" > <route edges="west_right east_right"/> </vehicle>
    <vehicle id="left_199" type="1" depart="2435"> <route edges="east_left west_left"/>  </vehicle>
    <vehicle id="down_200" type="0" depart="2451">  <route edges="north_down south_down"/> </vehicle>
    <vehicle id="down_201" type="0" depart="2463">  <route edges="north_down south_down"/> </vehicle>
    <vehicle id="down_202" type="0" depart="2472">  <route edges="north_down south_down"/> </vehicle>
    <vehicle id="left_203" type="1" depart="2477"> <route edges="east_left west_left"/>  </vehicle>
    <vehicle id="left_204" type="1" depart="2482"> <route edges="east_left west_left"/>  </vehicle>
    <vehicle id="left_205" type="1" depart="2483"> <route edges="east_left west_left"/>  </vehicle>
    <vehicle id="right_206" type="2" depart="2519" > <route edges="west_right east_right"/> </vehicle>
    <vehicle id="right_207" type="2" depart="2530" > <route edges="west_right east_right"/> </vehicle>
    <vehicle id="left_208" type="1" depart="2533"> <route edges="east_left west_left"/>  </vehicle>
    <vehicle id="down_209" type="0" depart="2551">  <route edges="north_down south_down"/> </vehicle>
    <vehicle id="down_210" type="0" depart="2570">  <route edges="north_down south_down"/> </vehicle>
    <vehicle id="left_211" type="1" depart="2575"> <route edges="east_left west_left"/>  </vehicle>
    <vehicle id="right_212" type="2" depart="2583" > <route edges="west_right east_right"/> </vehicle>
    <vehicle id="left_213" type="1" depart="2614"> <route edges="east_left west_left"/>  </vehicle>
    <vehicle id="right_214" type="2" depart="2619" > <route edges="west_right east_right"/> </vehicle>
    <vehicle id="left_215" type="1" depart="2630"> <route edges="east_left west_left"/>  </vehicle>
    <vehicle id="left_216" type="1" depart="2636"> <route edges="east_left west_left"/>  </vehicle>
    <vehicle id="left_217" type="1" depart="2650"> <route edges="east_left west_left"/>  </vehicle>
    <vehicle id="down_218" type="0" depart="2660">  <route edges="north_down south_down"/> </vehicle>
    <vehicle id="left_219" type="1" depart="2672"> <route edges="east_left west_left"/>  </vehicle>
    <vehicle id="right_220" type="2" depart="2674" > <route edges="west_right east_right"/> </vehicle>
    <vehicle id="down_221" type="0" depart="2686">  <route edges="north_down south_down"/> </vehicle>
    <vehicle id="left_222" type="1" depart="2713"> <route edges="east_left west_left"/>  </vehicle>
    <vehicle id="down_223" type="0" depart="2739">  <route edges="north_down south_down"/> </vehicle>
    <vehicle id="left_224" type="1" depart="2753"> <route edges="east_left west_left"/>  </vehicle>
    <vehicle id="right_225" type="2" depart="2759" > <route edges="west_right east_right"/> </vehicle>
    <vehicle id="left_226" type="1" depart="2769"> <route edges="east_left west_left"/>  </vehicle>
    <vehicle id="right_227" type="2" depart="2790" > <route edges="west_right east_right"/> </vehicle>
    <vehicle id="left_228" type="1" depart="2799"> <route edges="east_left west_left"/>  </vehicle>
    <vehicle id="down_229" type="0" depart="2831">  <route edges="north_down south_down"/> </vehicle>
    <vehicle id="down_230" type="0" depart="2848">  <route edges="north_down south_down"/> </vehicle>
    <vehicle id="right_231" type="2" depart="2871" > <route edges="west_right east_right"/> </vehicle>
    <vehicle id="right_232" type="2" depart="2886" > <route edges="west_right east_right"/> </vehicle>
    <vehicle id="right_233" type="2" depart="2901" > <route edges="west_right east_right"/> </vehicle>
    <vehicle id="right_234" type="2" depart="2917" > <route edges="west_right east_right"/> </vehicle>
    <vehicle id="left_235" type="1" depart="2922"> <route edges="east_left west_left"/>  </vehicle>
    <vehicle id="left_236" type="1" depart="2925"> <route edges="east_left west_left"/>  </vehicle>
    <vehicle id="down_237" type="0" depart="2933">  <route edges="north_down south_down"/> </vehicle>
    <vehicle id="right_238" type="2" depart="2946" > <route edges="west_right east_right"/> </vehicle>
    <vehicle id="right_239" type="2" depart="2959" > <route edges="west_right east_right"/> </vehicle>
    <vehicle id="down_240" type="0" depart="2959">  <route edges="north_down south_down"/> </vehicle>
    <vehicle id="left_241" type="1" depart="2969"> <route edges="east_left west_left"/>  </vehicle>
    <vehicle id="down_242" type="0" depart="2976">  <route edges="north_down south_down"/> </vehicle>
    <vehicle id="left_243" type="1" depart="2988"> <route edges="east_left west_left"/>  </vehicle>
    <vehicle id="left_244" type="1" depart="2991"> <route edges="east_left west_left"/>  </vehicle>
    <vehicle id="left_245" type="1" depart="2994"> <route edges="east_left west_left"/>  </vehicle>
    <vehicle id="down_246" type="0" depart="3025">  <route edges="north_down south_down"/> </vehicle>
    <vehicle id="right_247" type="2" depart="3036" > <route edges="west_right east_right"/> </vehicle>
    <vehicle id="left_248" type="1" depart="3048"> <route edges="east_left west_left"/>  </vehicle>
    <vehicle id="right_249" type="2" depart="3055" > <route edges="west_right east_right"/> </vehicle>
    <vehicle id="down_250" type="0" depart="3060">  <route edges="north_down south_down"/> </vehicle>
    <vehicle id="left_251" type="1" depart="3061"> <route edges="east_left west_left"/>  </vehicle>
    <vehicle id="right_252" type="2" depart="3074" > <route edges="west_right east_right"/> </vehicle>
    <vehicle id="right_253" type="2" depart="3079" > <route edges="west_right east_right"/> </vehicle>
    <vehicle id="right_254" type="2" depart="3083" > <route edges="west_right east_right"/> </vehicle>
    <vehicle id="down_255" type="0" depart="3107">  <route edges="north_down south_down"/> </vehicle>
    <vehicle id="right_256" type="2" depart="3111" > <route edges="west_right east_right"/> </vehicle>
    <vehicle id="left_257" type="1" depart="3112"> <route edges="east_left west_left"/>  </vehicle>
    <vehicle id="right_258" type="2" depart="3116" > <route edges="west_right east_right"/> </vehicle>
    <vehicle id="left_259" type="1" depart="3133"> <route edges="east_left west_left"/>  </vehicle>
    <vehicle id="right_260" type="2" depart="3137" > <route edges="west_right east_right"/> </vehicle>
    <vehicle id="right_261" type="2" depart="3157" > <route edges="west_right east_right"/> </vehicle>
    <vehicle id="down_262" type="0" depart="3157">  <route edges="north_down south_down"/> </vehicle>
    <vehicle id="down_263" type="0" depart="3174">  <route edges="north_down south_down"/> </vehicle>
    <vehicle id="down_264" type="0" depart="3204">  <route edges="north_down south_down"/> </vehicle>
    <vehicle id="down_265" type="0" depart="3214">  <route edges="north_down south_down"/> </vehicle>
    <vehicle id="left_266" type="1" depart="3218"> <route edges="east_left west_left"/>  </vehicle>
    <vehicle id="left_267" type="1" depart="3234"> <route edges="east_left west_left"/>  </vehicle>
    <vehicle id="right_268" type="2" depart="3237" > <route edges="west_right east_right"/> </vehicle>
    <vehicle id="right_269" type="2" depart="3259" > <route edges="west_right east_right"/> </vehicle>
    <vehicle id="left_270" type="1" depart="3268"> <route edges="east_left west_left"/>  </vehicle>
    <vehicle id="down_271" type="0" depart="3269">  <route edges="north_down south_down"/> </vehicle>
    <vehicle id="left_272" type="1" depart="3282"> <route edges="east_left west_left"/>  </vehicle>
    <vehicle id="left_273" type="1" depart="3283"> <route edges="east_left west_left"/>  </vehicle>
    <vehicle id="right_274" type="2" depart="3329" > <route edges="west_right east_right"/> </vehicle>
    <vehicle id="left_275" type="1" depart="3340"> <route edges="east_left west_left"/>  </vehicle>
    <vehicle id="left_276" type="1" depart="3350"> <route edges="east_left west_left"/>  </vehicle>
    <vehicle id="left_277" type="1" depart="3373"> <route edges="east_left west_left"/>  </vehicle>
    <vehicle id="left_278" type="1" depart="3383"> <route edges="east_left west_left"/>  </vehicle>
    <vehicle id="left_279" type="1" depart="3410"> <route edges="east_left west_left"/>  </vehicle>
    <vehicle id="left_280" type="1" depart="3433"> <route edges="east_left west_left"/>  </vehicle>
    <vehicle id="left_281" type="1" depart="3461"> <route edges="east_left west_left"/>  </vehicle>
    <vehicle id="right_282" type="2" depart="3463" > <route edges="west_right east_right"/> </vehicle>
    <vehicle id="right_283" type="2" depart="3477" > <route edges="west_right east_right"/> </vehicle>
    <vehicle id="right_284" type="2" depart="3482" > <route edges="west_right east_right"/> </vehicle>
    <vehicle id="left_285" type="1" depart="3504"> <route edges="east_left west_left"/>  </vehicle>
    <vehicle id="right_286" type="2" depart="3512" > <route edges="west_right east_right"/> </vehicle>
    <vehicle id="left_287" type="1" depart="3519"> <route edges="east_left west_left"/>  </vehicle>
    <vehicle id="right_288" type="2" depart="3523" > <route edges="west_right east_right"/> </vehicle>
    <vehicle id="down_289" type="0" depart="3527">  <route edges="north_down south_down"/> </vehicle>
    <vehicle id="left_290" type="1" depart="3539"> <route edges="east_left west_left"/>  </vehicle>
    <vehicle id="left_291" type="1" depart="3557"> <route edges="east_left west_left"/>  </vehicle>
    <vehicle id="right_292" type="2" depart="3585" > <route edges="west_right east_right"/> </vehicle>