<routes>
        <vType id="typeWE" accel="0.8" decel="4.5" sigma="0.5" length="5" minGap="2.5" maxSpeed="16.67" guiShape="passenger"/>
        <vType id="typeNS" accel="0.8" decel="4.5" sigma="0.5" length="7" minGap="3" maxSpeed="25" guiShape="bus"/>

        <route id="right" edges="51o 1i 2o 52i" />
        <route id="left" edges="52o 2i 1o 51i" />
        <route id="down" edges="54o 4i 3o 53i" />
    <vehicle id="down_0" type="typeNS" route="down" depart="0" color="1,0,0"/>
    <vehicle id="down_1" type="typeNS" route="down" depart="3" color="1,0,0"/>
    <vehicle id="down_2" type="typeNS" route="down" depart="4" color="1,0,0"/>
    <vehicle id="right_3" type="typeWE" route="right" depart="6" />
    <vehicle id="down_4" type="typeNS" route="down" depart="9" color="1,0,0"/>
    <vehicle id="right_5" type="typeWE" route="right" depart="13" />
    <vehicle id="down_6" type="typeNS" route="down" depart="13" color="1,0,0"/>
    <vehicle id="down_7" type="typeNS" route="down" depart="20" color="1,0,0"/>
    <vehicle id="right_8" type="typeWE" route="right" depart="22" />
    <vehicle id="down_9" type="typeNS" route="down" depart="33" color="1,0,0"/>
    <vehicle id="right_10" type="typeWE" route="right" depart="44" />
    <vehicle id="down_11" type="typeNS" route="down" depart="44" color="1,0,0"/>
    <vehicle id="right_12" type="typeWE" route="right" depart="47" />
    <vehicle id="right_13" type="typeWE" route="right" depart="50" />
    <vehicle id="right_14" type="typeWE" route="right" depart="62" />
    <vehicle id="right_15" type="typeWE" route="right" depart="63" />
    <vehicle id="down_16" type="typeNS" route="down" depart="65" color="1,0,0"/>
    <vehicle id="right_17" type="typeWE" route="right" depart="67" />
    <vehicle id="right_18" type="typeWE" route="right" depart="68" />
    <vehicle id="right_19" type="typeWE" route="right" depart="80" />
    <vehicle id="down_20" type="typeNS" route="down" depart="82" color="1,0,0"/>
    <vehicle id="right_21" type="typeWE" route="right" depart="88" />
    <vehicle id="down_22" type="typeNS" route="down" depart="91" color="1,0,0"/>
    <vehicle id="down_23" type="typeNS" route="down" depart="98" color="1,0,0"/>
    <vehicle id="down_24" type="typeNS" route="down" depart="103" color="1,0,0"/>
    <vehicle id="right_25" type="typeWE" route="right" depart="112" />
    <vehicle id="right_26" type="typeWE" route="right" depart="115" />
    <vehicle id="right_27" type="typeWE" route="right" depart="126" />
    <vehicle id="right_28" type="typeWE" route="right" depart="128" />
    <vehicle id="down_29" type="typeNS" route="down" depart="134" color="1,0,0"/>
    <vehicle id="down_30" type="typeNS" route="down" depart="143" color="1,0,0"/>
    <vehicle id="right_31" type="typeWE" route="right" depart="145" />
    <vehicle id="down_32" type="typeNS" route="down" depart="148" color="1,0,0"/>
    <vehicle id="right_33" type="typeWE" route="right" depart="149" />
    <vehicle id="right_34" type="typeWE" route="right" depart="162" />
    <vehicle id="right_35" type="typeWE" route="right" depart="171" />
    <vehicle id="right_36" type="typeWE" route="right" depart="184" />
    <vehicle id="down_37" type="typeNS" route="down" depart="187" color="1,0,0"/>
    <vehicle id="right_38" type="typeWE" route="right" depart="197" />
    <vehicle id="right_39" type="typeWE" route="right" depart="203" />
    <vehicle id="down_40" type="typeNS" route="down" depart="207" color="1,0,0"/>
    <vehicle id="down_41" type="typeNS" route="down" depart="209" color="1,0,0"/>
    <vehicle id="down_42" type="typeNS" route="down" depart="213" color="1,0,0"/>
    <vehicle id="down_43" type="typeNS" route="down" depart="217" color="1,0,0"/>
    <vehicle id="right_44" type="typeWE" route="right" depart="230" />
    <vehicle id="down_45" type="typeNS" route="down" depart="234" color="1,0,0"/>
    <vehicle id="down_46" type="typeNS" route="down" depart="240" color="1,0,0"/>
    <vehicle id="down_47" type="typeNS" route="down" depart="246" color="1,0,0"/>
    <vehicle id="down_48" type="typeNS" route="down" depart="250" color="1,0,0"/>
    <vehicle id="right_49" type="typeWE" route="right" depart="252" />
    <vehicle id="right_50" type="typeWE" route="right" depart="254" />
    <vehicle id="down_51" type="typeNS" route="down" depart="258" color="1,0,0"/>
    <vehicle id="right_52" type="typeWE" route="right" depart="259" />
    <vehicle id="right_53" type="typeWE" route="right" depart="264" />
    <vehicle id="down_54" type="typeNS" route="down" depart="271" color="1,0,0"/>
    <vehicle id="down_55" type="typeNS" route="down" depart="274" color="1,0,0"/>
    <vehicle id="down_56" type="typeNS" route="down" depart="291" color="1,0,0"/>
    <vehicle id="down_57" type="typeNS" route="down" depart="294" color="1,0,0"/>
    <vehicle id="right_58" type="typeWE" route="right" depart="299" />
    <vehicle id="right_59" type="typeWE" route="right" depart="300" />
    <vehicle id="right_60" type="typeWE" route="right" depart="304" />
    <vehicle id="down_61" type="typeNS" route="down" depart="318" color="1,0,0"/>
    <vehicle id="down_62" type="typeNS" route="down" depart="325" color="1,0,0"/>
    <vehicle id="right_63" type="typeWE" route="right" depart="328" />
    <vehicle id="right_64" type="typeWE" route="right" depart="329" />
    <vehicle id="down_65" type="typeNS" route="down" depart="341" color="1,0,0"/>
    <vehicle id="right_66" type="typeWE" route="right" depart="342" />
    <vehicle id="down_67" type="typeNS" route="down" depart="351" color="1,0,0"/>
    <vehicle id="down_68" type="typeNS" route="down" depart="357" color="1,0,0"/>
    <vehicle id="right_69" type="typeWE" route="right" depart="358" />
    <vehicle id="right_70" type="typeWE" route="right" depart="360" />
    <vehicle id="right_71" type="typeWE" route="right" depart="364" />
    <vehicle id="down_72" type="typeNS" route="down" depart="368" color="1,0,0"/>
    <vehicle id="down_73" type="typeNS" route="down" depart="387" color="1,0,0"/>
    <vehicle id="down_74" type="typeNS" route="down" depart="408" color="1,0,0"/>
    <vehicle id="right_75" type="typeWE" route="right" depart="413" />
    <vehicle id="down_76" type="typeNS" route="down" depart="425" color="1,0,0"/>
    <vehicle id="right_77" type="typeWE" route="right" depart="426" />
    <vehicle id="right_78" type="typeWE" route="right" depart="429" />
    <vehicle id="right_79" type="typeWE" route="right" depart="432" />
    <vehicle id="down_80" type="typeNS" route="down" depart="436" color="1,0,0"/>
    <vehicle id="right_81" type="typeWE" route="right" depart="441" />
    <vehicle id="right_82" type="typeWE" route="right" depart="454" />
    <vehicle id="down_83" type="typeNS" route="down" depart="464" color="1,0,0"/>
    <vehicle id="right_84" type="typeWE" route="right" depart="478" />
    <vehicle id="right_85" type="typeWE" route="right" depart="483" />
    <vehicle id="down_86" type="typeNS" route="down" depart="485" color="1,0,0"/>
    <vehicle id="right_87" type="typeWE" route="right" depart="490" />
    <vehicle id="down_88" type="typeNS" route="down" depart="495" color="1,0,0"/>
    <vehicle id="down_89" type="typeNS" route="down" depart="497" color="1,0,0"/>
    <vehicle id="right_90" type="typeWE" route="right" depart="500" />
    <vehicle id="down_91" type="typeNS" route="down" depart="506" color="1,0,0"/>
    <vehicle id="right_92" type="typeWE" route="right" depart="509" />
    <vehicle id="right_93" type="typeWE" route="right" depart="513" />
    <vehicle id="down_94" type="typeNS" route="down" depart="516" color="1,0,0"/>
    <vehicle id="right_95" type="typeWE" route="right" depart="517" />
    <vehicle id="down_96" type="typeNS" route="down" depart="519" color="1,0,0"/>
    <vehicle id="down_97" type="typeNS" route="down" depart="524" color="1,0,0"/>
    <vehicle id="down_98" type="typeNS" route="down" depart="527" color="1,0,0"/>
    <vehicle id="down_99" type="typeNS" route="down" depart="530" color="1,0,0"/>
    <vehicle id="right_100" type="typeWE" route="right" depart="531" />
    <vehicle id="right_101" type="typeWE" route="right" depart="532" />
    <vehicle id="down_102" type="typeNS" route="down" depart="536" color="1,0,0"/>
    <vehicle id="down_103" type="typeNS" route="down" depart="542" color="1,0,0"/>
    <vehicle id="down_104" type="typeNS" route="down" depart="545" color="1,0,0"/>
    <vehicle id="down_105" type="typeNS" route="down" depart="546" color="1,0,0"/>
    <vehicle id="right_106" type="typeWE" route="right" depart="547" />
    <vehicle id="down_107" type="typeNS" route="down" depart="562" color="1,0,0"/>
    <vehicle id="down_108" type="typeNS" route="down" depart="566" color="1,0,0"/>
    <vehicle id="down_109" type="typeNS" route="down" depart="569" color="1,0,0"/>
    <vehicle id="right_110" type="typeWE" route="right" depart="574" />
    <vehicle id="down_111" type="typeNS" route="down" depart="574" color="1,0,0"/>
    <vehicle id="down_112" type="typeNS" route="down" depart="582" color="1,0,0"/>
    <vehicle id="right_113" type="typeWE" route="right" depart="584" />
    <vehicle id="right_114" type="typeWE" route="right" depart="587" />
    <vehicle id="right_115" type="typeWE" route="right" depart="591" />
    <vehicle id="right_116" type="typeWE" route="right" depart="592" />
    <vehicle id="down_117" type="typeNS" route="down" depart="592" color="1,0,0"/>
    <vehicle id="down_118" type="typeNS" route="down" depart="596" color="1,0,0"/>
    <vehicle id="down_119" type="typeNS" route="down" depart="599" color="1,0,0"/>
    <vehicle id="right_120" type="typeWE" route="right" depart="618" />
    <vehicle id="right_121" type="typeWE" route="right" depart="620" />
    <vehicle id="right_122" type="typeWE" route="right" depart="622" />
    <vehicle id="right_123" type="typeWE" route="right" depart="623" />
    <vehicle id="down_124" type="typeNS" route="down" depart="630" color="1,0,0"/>
    <vehicle id="right_125" type="typeWE" route="right" depart="640" />
    <vehicle id="down_126" type="typeNS" route="down" depart="640" color="1,0,0"/>
    <vehicle id="right_127" type="typeWE" route="right" depart="658" />
    <vehicle id="right_128" type="typeWE" route="right" depart="661" />
    <vehicle id="down_129" type="typeNS" route="down" depart="686" color="1,0,0"/>
    <vehicle id="right_130" type="typeWE" route="right" depart="687" />
    <vehicle id="down_131" type="typeNS" route="down" depart="689" color="1,0,0"/>
    <vehicle id="down_132" type="typeNS" route="down" depart="695" color="1,0,0"/>
    <vehicle id="right_133" type="typeWE" route="right" depart="696" />
    <vehicle id="down_134" type="typeNS" route="down" depart="700" color="1,0,0"/>
    <vehicle id="right_135" type="typeWE" route="right" depart="704" />
    <vehicle id="down_136" type="typeNS" route="down" depart="708" color="1,0,0"/>
    <vehicle id="down_137" type="typeNS" route="down" depart="709" color="1,0,0"/>
    <vehicle id="down_138" type="typeNS" route="down" depart="714" color="1,0,0"/>
    <vehicle id="down_139" type="typeNS" route="down" depart="718" color="1,0,0"/>
    <vehicle id="right_140" type="typeWE" route="right" depart="723" />
    <vehicle id="right_141" type="typeWE" route="right" depart="725" />
    <vehicle id="right_142" type="typeWE" route="right" depart="726" />
    <vehicle id="down_143" type="typeNS" route="down" depart="738" color="1,0,0"/>
    <vehicle id="right_144" type="typeWE" route="right" depart="741" />
    <vehicle id="down_145" type="typeNS" route="down" depart="744" color="1,0,0"/>
    <vehicle id="right_146" type="typeWE" route="right" depart="748" />
    <vehicle id="down_147" type="typeNS" route="down" depart="752" color="1,0,0"/>
    <vehicle id="right_148" type="typeWE" route="right" depart="753" />
    <vehicle id="right_149" type="typeWE" route="right" depart="769" />
    <vehicle id="down_150" type="typeNS" route="down" depart="771" color="1,0,0"/>
    <vehicle id="right_151" type="typeWE" route="right" depart="778" />
    <vehicle id="right_152" type="typeWE" route="right" depart="781" />
    <vehicle id="down_153" type="typeNS" route="down" depart="784" color="1,0,0"/>
    <vehicle id="right_154" type="typeWE" route="right" depart="791" />
    <vehicle id="right_155" type="typeWE" route="right" depart="804" />
    <vehicle id="down_156" type="typeNS" route="down" depart="804" color="1,0,0"/>
    <vehicle id="right_157" type="typeWE" route="right" depart="812" />
    <vehicle id="down_158" type="typeNS" route="down" depart="812" color="1,0,0"/>
    <vehicle id="right_159" type="typeWE" route="right" depart="821" />
    <vehicle id="down_160" type="typeNS" route="down" depart="828" color="1,0,0"/>
    <vehicle id="down_161" type="typeNS" route="down" depart="831" color="1,0,0"/>
    <vehicle id="down_162" type="typeNS" route="down" depart="839" color="1,0,0"/>
    <vehicle id="down_163" type="typeNS" route="down" depart="847" color="1,0,0"/>
    <vehicle id="down_164" type="typeNS" route="down" depart="860" color="1,0,0"/>
    <vehicle id="down_165" type="typeNS" route="down" depart="867" color="1,0,0"/>
    <vehicle id="right_166" type="typeWE" route="right" depart="869" />
    <vehicle id="down_167" type="typeNS" route="down" depart="873" color="1,0,0"/>
    <vehicle id="right_168" type="typeWE" route="right" depart="901" />
    <vehicle id="down_169" type="typeNS" route="down" depart="903" color="1,0,0"/>
    <vehicle id="down_170" type="typeNS" route="down" depart="909" color="1,0,0"/>
    <vehicle id="right_171" type="typeWE" route="right" depart="918" />
    <vehicle id="right_172" type="typeWE" route="right" depart="931" />
    <vehicle id="right_173" type="typeWE" route="right" depart="937" />
    <vehicle id="down_174" type="typeNS" route="down" depart="938" color="1,0,0"/>
    <vehicle id="down_175" type="typeNS" route="down" depart="951" color="1,0,0"/>
    <vehicle id="right_176" type="typeWE" route="right" depart="953" />
    <vehicle id="right_177" type="typeWE" route="right" depart="954" />
    <vehicle id="right_178" type="typeWE" route="right" depart="959" />
    <vehicle id="right_179" type="typeWE" route="right" depart="962" />
    <vehicle id="right_180" type="typeWE" route="right" depart="966" />
    <vehicle id="right_181" type="typeWE" route="right" depart="967" />
    <vehicle id="down_182" type="typeNS" route="down" depart="968" color="1,0,0"/>
    <vehicle id="down_183" type="typeNS" route="down" depart="969" color="1,0,0"/>
    <vehicle id="down_184" type="typeNS" route="down" depart="980" color="1,0,0"/>
    <vehicle id="right_185" type="typeWE" route="right" depart="981" />
    <vehicle id="right_186" type="typeWE" route="right" depart="989" />
    <vehicle id="down_187" type="typeNS" route="down" depart="990" color="1,0,0"/>
    <vehicle id="right_188" type="typeWE" route="right" depart="992" />
    <vehicle id="right_189" type="typeWE" route="right" depart="995" />
    <vehicle id="right_190" type="typeWE" route="right" depart="1002" />
    <vehicle id="down_191" type="typeNS" route="down" depart="1017" color="1,0,0"/>
    <vehicle id="right_192" type="typeWE" route="right" depart="1025" />
    <vehicle id="right_193" type="typeWE" route="right" depart="1034" />
    <vehicle id="right_194" type="typeWE" route="right" depart="1051" />
    <vehicle id="down_195" type="typeNS" route="down" depart="1051" color="1,0,0"/>
    <vehicle id="right_196" type="typeWE" route="right" depart="1056" />
    <vehicle id="right_197" type="typeWE" route="right" depart="1060" />
    <vehicle id="right_198" type="typeWE" route="right" depart="1061" />
    <vehicle id="right_199" type="typeWE" route="right" depart="1063" />
    <vehicle id="right_200" type="typeWE" route="right" depart="1066" />
    <vehicle id="down_201" type="typeNS" route="down" depart="1074" color="1,0,0"/>
    <vehicle id="right_202" type="typeWE" route="right" depart="1076" />
    <vehicle id="down_203" type="typeNS" route="down" depart="1076" color="1,0,0"/>
    <vehicle id="right_204" type="typeWE" route="right" depart="1080" />
    <vehicle id="right_205" type="typeWE" route="right" depart="1081" />
    <vehicle id="down_206" type="typeNS" route="down" depart="1083" color="1,0,0"/>
    <vehicle id="right_207" type="typeWE" route="right" depart="1084" />
    <vehicle id="right_208" type="typeWE" route="right" depart="1086" />
    <vehicle id="right_209" type="typeWE" route="right" depart="1090" />
    <vehicle id="down_210" type="typeNS" route="down" depart="1096" color="1,0,0"/>
    <vehicle id="down_211" type="typeNS" route="down" depart="1100" color="1,0,0"/>
    <vehicle id="right_212" type="typeWE" route="right" depart="1105" />
    <vehicle id="right_213" type="typeWE" route="right" depart="1107" />
    <vehicle id="down_214" type="typeNS" route="down" depart="1110" color="1,0,0"/>
    <vehicle id="right_215" type="typeWE" route="right" depart="1115" />
    <vehicle id="right_216" type="typeWE" route="right" depart="1116" />
    <vehicle id="right_217" type="typeWE" route="right" depart="1119" />
    <vehicle id="right_218" type="typeWE" route="right" depart="1124" />
    <vehicle id="right_219" type="typeWE" route="right" depart="1126" />
    <vehicle id="down_220" type="typeNS" route="down" depart="1152" color="1,0,0"/>
    <vehicle id="right_221" type="typeWE" route="right" depart="1159" />
    <vehicle id="down_222" type="typeNS" route="down" depart="1161" color="1,0,0"/>
    <vehicle id="right_223" type="typeWE" route="right" depart="1165" />
    <vehicle id="right_224" type="typeWE" route="right" depart="1171" />
    <vehicle id="down_225" type="typeNS" route="down" depart="1187" color="1,0,0"/>
    <vehicle id="right_226" type="typeWE" route="right" depart="1192" />
    <vehicle id="right_227" type="typeWE" route="right" depart="1202" />
    <vehicle id="right_228" type="typeWE" route="right" depart="1212" />
    <vehicle id="right_229" type="typeWE" route="right" depart="1213" />
    <vehicle id="right_230" type="typeWE" route="right" depart="1218" />
    <vehicle id="down_231" type="typeNS" route="down" depart="1218" color="1,0,0"/>
    <vehicle id="down_232" type="typeNS" route="down" depart="1226" color="1,0,0"/>
    <vehicle id="right_233" type="typeWE" route="right" depart="1239" />
    <vehicle id="down_234" type="typeNS" route="down" depart="1244" color="1,0,0"/>
    <vehicle id="down_235" type="typeNS" route="down" depart="1254" color="1,0,0"/>
    <vehicle id="right_236" type="typeWE" route="right" depart="1258" />
    <vehicle id="down_237" type="typeNS" route="down" depart="1261" color="1,0,0"/>
    <vehicle id="right_238" type="typeWE" route="right" depart="1268" />
    <vehicle id="down_239" type="typeNS" route="down" depart="1268" color="1,0,0"/>
    <vehicle id="down_240" type="typeNS" route="down" depart="1271" color="1,0,0"/>
    <vehicle id="down_241" type="typeNS" route="down" depart="1281" color="1,0,0"/>
    <vehicle id="right_242" type="typeWE" route="right" depart="1284" />
    <vehicle id="right_243" type="typeWE" route="right" depart="1287" />
    <vehicle id="down_244" type="typeNS" route="down" depart="1293" color="1,0,0"/>
    <vehicle id="right_245" type="typeWE" route="right" depart="1298" />
    <vehicle id="down_246" type="typeNS" route="down" depart="1302" color="1,0,0"/>
    <vehicle id="right_247" type="typeWE" route="right" depart="1309" />
    <vehicle id="down_248" type="typeNS" route="down" depart="1318" color="1,0,0"/>
    <vehicle id="right_249" type="typeWE" route="right" depart="1319" />
    <vehicle id="right_250" type="typeWE" route="right" depart="1320" />
    <vehicle id="down_251" type="typeNS" route="down" depart="1320" color="1,0,0"/>
    <vehicle id="right_252" type="typeWE" route="right" depart="1324" />
    <vehicle id="down_253" type="typeNS" route="down" depart="1330" color="1,0,0"/>
    <vehicle id="down_254" type="typeNS" route="down" depart="1332" color="1,0,0"/>
    <vehicle id="right_255" type="typeWE" route="right" depart="1333" />
    <vehicle id="down_256" type="typeNS" route="down" depart="1343" color="1,0,0"/>
    <vehicle id="right_257" type="typeWE" route="right" depart="1345" />
    <vehicle id="down_258" type="typeNS" route="down" depart="1346" color="1,0,0"/>
    <vehicle id="down_259" type="typeNS" route="down" depart="1352" color="1,0,0"/>
    <vehicle id="down_260" type="typeNS" route="down" depart="1360" color="1,0,0"/>
    <vehicle id="down_261" type="typeNS" route="down" depart="1364" color="1,0,0"/>
    <vehicle id="down_262" type="typeNS" route="down" depart="1367" color="1,0,0"/>
    <vehicle id="right_263" type="typeWE" route="right" depart="1374" />
    <vehicle id="down_264" type="typeNS" route="down" depart="1377" color="1,0,0"/>
    <vehicle id="down_265" type="typeNS" route="down" depart="1381" color="1,0,0"/>
    <vehicle id="right_266" type="typeWE" route="right" depart="1383" />
    <vehicle id="down_267" type="typeNS" route="down" depart="1386" color="1,0,0"/>
    <vehicle id="right_268" type="typeWE" route="right" depart="1387" />
    <vehicle id="down_269" type="typeNS" route="down" depart="1388" color="1,0,0"/>
    <vehicle id="down_270" type="typeNS" route="down" depart="1394" color="1,0,0"/>
    <vehicle id="down_271" type="typeNS" route="down" depart="1403" color="1,0,0"/>
    <vehicle id="right_272" type="typeWE" route="right" depart="1405" />
    <vehicle id="down_273" type="typeNS" route="down" depart="1408" color="1,0,0"/>
    <vehicle id="down_274" type="typeNS" route="down" depart="1412" color="1,0,0"/>
    <vehicle id="right_275" type="typeWE" route="right" depart="1418" />
    <vehicle id="down_276" type="typeNS" route="down" depart="1418" color="1,0,0"/>
    <vehicle id="right_277" type="typeWE" route="right" depart="1422" />
    <vehicle id="right_278" type="typeWE" route="right" depart="1425" />
    <vehicle id="down_279" type="typeNS" route="down" depart="1428" color="1,0,0"/>
    <vehicle id="down_280" type="typeNS" route="down" depart="1431" color="1,0,0"/>
    <vehicle id="down_281" type="typeNS" route="down" depart="1442" color="1,0,0"/>
    <vehicle id="right_282" type="typeWE" route="right" depart="1448" />
    <vehicle id="down_283" type="typeNS" route="down" depart="1454" color="1,0,0"/>
    <vehicle id="right_284" type="typeWE" route="right" depart="1460" />
    <vehicle id="right_285" type="typeWE" route="right" depart="1462" />
    <vehicle id="right_286" type="typeWE" route="right" depart="1466" />
    <vehicle id="down_287" type="typeNS" route="down" depart="1483" color="1,0,0"/>
    <vehicle id="right_288" type="typeWE" route="right" depart="1490" />
    <vehicle id="down_289" type="typeNS" route="down" depart="1493" color="1,0,0"/>
    <vehicle id="right_290" type="typeWE" route="right" depart="1495" />
    <vehicle id="right_291" type="typeWE" route="right" depart="1502" />
    <vehicle id="down_292" type="typeNS" route="down" depart="1504" color="1,0,0"/>
    <vehicle id="down_293" type="typeNS" route="down" depart="1507" color="1,0,0"/>
    <vehicle id="down_294" type="typeNS" route="down" depart="1509" color="1,0,0"/>
    <vehicle id="down_295" type="typeNS" route="down" depart="1516" color="1,0,0"/>
    <vehicle id="down_296" type="typeNS" route="down" depart="1521" color="1,0,0"/>
    <vehicle id="right_297" type="typeWE" route="right" depart="1523" />
    <vehicle id="right_298" type="typeWE" route="right" depart="1526" />
    <vehicle id="right_299" type="typeWE" route="right" depart="1531" />
    <vehicle id="down_300" type="typeNS" route="down" depart="1532" color="1,0,0"/>
    <vehicle id="down_301" type="typeNS" route="down" depart="1539" color="1,0,0"/>
    <vehicle id="down_302" type="typeNS" route="down" depart="1551" color="1,0,0"/>
    <vehicle id="down_303" type="typeNS" route="down" depart="1564" color="1,0,0"/>
    <vehicle id="right_304" type="typeWE" route="right" depart="1567" />
    <vehicle id="down_305" type="typeNS" route="down" depart="1570" color="1,0,0"/>
    <vehicle id="down_306" type="typeNS" route="down" depart="1573" color="1,0,0"/>
    <vehicle id="right_307" type="typeWE" route="right" depart="1585" />
    <vehicle id="down_308" type="typeNS" route="down" depart="1591" color="1,0,0"/>
    <vehicle id="right_309" type="typeWE" route="right" depart="1602" />
    <vehicle id="down_310" type="typeNS" route="down" depart="1603" color="1,0,0"/>
    <vehicle id="down_311" type="typeNS" route="down" depart="1605" color="1,0,0"/>
    <vehicle id="right_312" type="typeWE" route="right" depart="1617" />
    <vehicle id="right_313" type="typeWE" route="right" depart="1628" />
    <vehicle id="down_314" type="typeNS" route="down" depart="1635" color="1,0,0"/>
    <vehicle id="down_315" type="typeNS" route="down" depart="1639" color="1,0,0"/>
    <vehicle id="right_316" type="typeWE" route="right" depart="1646" />
    <vehicle id="right_317" type="typeWE" route="right" depart="1649" />
    <vehicle id="down_318" type="typeNS" route="down" depart="1656" color="1,0,0"/>
    <vehicle id="right_319" type="typeWE" route="right" depart="1660" />
    <vehicle id="right_320" type="typeWE" route="right" depart="1663" />
    <vehicle id="down_321" type="typeNS" route="down" depart="1664" color="1,0,0"/>
    <vehicle id="down_322" type="typeNS" route="down" depart="1682" color="1,0,0"/>
    <vehicle id="down_323" type="typeNS" route="down" depart="1684" color="1,0,0"/>
    <vehicle id="down_324" type="typeNS" route="down" depart="1686" color="1,0,0"/>
    <vehicle id="down_325" type="typeNS" route="down" depart="1700" color="1,0,0"/>
    <vehicle id="right_326" type="typeWE" route="right" depart="1703" />
    <vehicle id="right_327" type="typeWE" route="right" depart="1706" />
    <vehicle id="down_328" type="typeNS" route="down" depart="1710" color="1,0,0"/>
    <vehicle id="down_329" type="typeNS" route="down" depart="1711" color="1,0,0"/>
    <vehicle id="right_330" type="typeWE" route="right" depart="1714" />
    <vehicle id="right_331" type="typeWE" route="right" depart="1715" />
    <vehicle id="right_332" type="typeWE" route="right" depart="1719" />
    <vehicle id="down_333" type="typeNS" route="down" depart="1725" color="1,0,0"/>
    <vehicle id="down_334" type="typeNS" route="down" depart="1730" color="1,0,0"/>
    <vehicle id="down_335" type="typeNS" route="down" depart="1734" color="1,0,0"/>
    <vehicle id="right_336" type="typeWE" route="right" depart="1741" />
    <vehicle id="down_337" type="typeNS" route="down" depart="1745" color="1,0,0"/>
    <vehicle id="down_338" type="typeNS" route="down" depart="1748" color="1,0,0"/>
    <vehicle id="down_339" type="typeNS" route="down" depart="1750" color="1,0,0"/>
    <vehicle id="down_340" type="typeNS" route="down" depart="1758" color="1,0,0"/>
    <vehicle id="right_341" type="typeWE" route="right" depart="1759" />
    <vehicle id="down_342" type="typeNS" route="down" depart="1763" color="1,0,0"/>
    <vehicle id="right_343" type="typeWE" route="right" depart="1772" />
    <vehicle id="down_344" type="typeNS" route="down" depart="1784" color="1,0,0"/>
    <vehicle id="right_345" type="typeWE" route="right" depart="1812" />
    <vehicle id="right_346" type="typeWE" route="right" depart="1818" />
    <vehicle id="down_347" type="typeNS" route="down" depart="1827" color="1,0,0"/>
    <vehicle id="right_348" type="typeWE" route="right" depart="1843" />
    <vehicle id="down_349" type="typeNS" route="down" depart="1848" color="1,0,0"/>
    <vehicle id="down_350" type="typeNS" route="down" depart="1850" color="1,0,0"/>
    <vehicle id="right_351" type="typeWE" route="right" depart="1856" />
    <vehicle id="down_352" type="typeNS" route="down" depart="1865" color="1,0,0"/>
    <vehicle id="down_353" type="typeNS" route="down" depart="1869" color="1,0,0"/>
    <vehicle id="right_354" type="typeWE" route="right" depart="1870" />
    <vehicle id="right_355" type="typeWE" route="right" depart="1878" />
    <vehicle id="down_356" type="typeNS" route="down" depart="1878" color="1,0,0"/>
    <vehicle id="right_357" type="typeWE" route="right" depart="1883" />
    <vehicle id="right_358" type="typeWE" route="right" depart="1887" />
    <vehicle id="down_359" type="typeNS" route="down" depart="1889" color="1,0,0"/>
    <vehicle id="down_360" type="typeNS" route="down" depart="1900" color="1,0,0"/>
    <vehicle id="down_361" type="typeNS" route="down" depart="1912" color="1,0,0"/>
    <vehicle id="right_362" type="typeWE" route="right" depart="1913" />
    <vehicle id="right_363" type="typeWE" route="right" depart="1922" />
    <vehicle id="down_364" type="typeNS" route="down" depart="1932" color="1,0,0"/>
    <vehicle id="right_365" type="typeWE" route="right" depart="1933" />
    <vehicle id="down_366" type="typeNS" route="down" depart="1933" color="1,0,0"/>
    <vehicle id="down_367" type="typeNS" route="down" depart="1934" color="1,0,0"/>
    <vehicle id="right_368" type="typeWE" route="right" depart="1952" />
    <vehicle id="right_369" type="typeWE" route="right" depart="1953" />
    <vehicle id="right_370" type="typeWE" route="right" depart="1956" />
    <vehicle id="right_371" type="typeWE" route="right" depart="1969" />
    <vehicle id="down_372" type="typeNS" route="down" depart="1976" color="1,0,0"/>
    <vehicle id="right_373" type="typeWE" route="right" depart="1977" />
    <vehicle id="right_374" type="typeWE" route="right" depart="1979" />
    <vehicle id="right_375" type="typeWE" route="right" depart="1980" />
    <vehicle id="right_376" type="typeWE" route="right" depart="1983" />
    <vehicle id="right_377" type="typeWE" route="right" depart="1985" />
    <vehicle id="right_378" type="typeWE" route="right" depart="1997" />
    <vehicle id="down_379" type="typeNS" route="down" depart="1998" color="1,0,0"/>
    <vehicle id="right_380" type="typeWE" route="right" depart="2005" />